/opt/apps/apps/binapps/fluent/19.5/ansys_inc/v195/fluent/fluent19.5.0/bin/fluent -r19.5.0 2d -g -i testc.jou -aas -sgeup
/opt/apps/apps/binapps/fluent/19.5/ansys_inc/v195/fluent/fluent19.5.0/cortex/lnamd64/cortex.19.5.0 -f fluent -g -aas -i testc.jou (fluent "2d -pshmem  -host -alnamd64 -r19.5.0 -t1 -mpi=ibmmpi -path/opt/apps/apps/binapps/fluent/19.5/ansys_inc/v195/fluent -sge -ssh")
/opt/apps/apps/binapps/fluent/19.5/ansys_inc/v195/fluent/fluent19.5.0/bin/fluent -r19.5.0 2d -pshmem -host -alnamd64 -t1 -mpi=ibmmpi -path/opt/apps/apps/binapps/fluent/19.5/ansys_inc/v195/fluent -sge -ssh -cx node613.pri.csf3.alces.network:38334:35700
/opt/apps/apps/binapps/fluent/19.5/ansys_inc/v195/fluent/fluent19.5.0/bin/fluent -r19.5.0 2d -pshmem -host -alnamd64 -t1 -mpi=ibmmpi -path/opt/apps/apps/binapps/fluent/19.5/ansys_inc/v195/fluent -sge -ssh -cx node613.pri.csf3.alces.network:38334:35700 -sgeup
Starting /opt/apps/apps/binapps/fluent/19.5/ansys_inc/v195/fluent/fluent19.5.0/lnamd64/2d_host/fluent.19.5.0 sge host -cx node613.pri.csf3.alces.network:38334:35700 "(list (rpsetvar (QUOTE parallel/function) "fluent 2d -flux -node -alnamd64 -r19.5.0 -t1 -pshmem -mpi=ibmmpi -sge -ssh") (rpsetvar (QUOTE parallel/rhost) "") (rpsetvar (QUOTE parallel/ruser) "") (rpsetvar (QUOTE parallel/nprocs_string) "1") (rpsetvar (QUOTE parallel/auto-spawn?) #t) (rpsetvar (QUOTE parallel/trace-level) 0) (rpsetvar (QUOTE parallel/remote-shell) 1) (rpsetvar (QUOTE parallel/path) "/opt/apps/apps/binapps/fluent/19.5/ansys_inc/v195/fluent") (rpsetvar (QUOTE parallel/hostsfile) "") )"

              Welcome to ANSYS Fluent 2019 R3

              Copyright 1987-2019 ANSYS, Inc. All Rights Reserved.
              Unauthorized use, distribution or duplication is prohibited.
              This product is subject to U.S. laws governing export and re-export.
              For full Legal Notice, see documentation.

Build Time: Aug 05 2019 15:40:31 EDT  Build Id: 10249  
 

     --------------------------------------------------------------
     This is an academic version of ANSYS FLUENT. Usage of this product
     license is limited to the terms and conditions specified in your ANSYS
     license form, additional terms section.
     --------------------------------------------------------------
Host spawning Node 0 on machine "node613.pri.csf3.alces.network" (unix).
/opt/apps/apps/binapps/fluent/19.5/ansys_inc/v195/fluent/fluent19.5.0/bin/fluent -r19.5.0 2d -flux -node -alnamd64 -t1 -pshmem -mpi=ibmmpi -sge -ssh -mport 10.10.160.13:10.10.160.13:43233:0
/opt/apps/apps/binapps/fluent/19.5/ansys_inc/v195/fluent/fluent19.5.0/bin/fluent -r19.5.0 2d -flux -node -alnamd64 -t1 -pshmem -mpi=ibmmpi -sge -ssh -mport 10.10.160.13:10.10.160.13:43233:0 -sgeup
Starting /opt/apps/apps/binapps/fluent/19.5/ansys_inc/v195/fluent/fluent19.5.0/multiport/mpi/lnamd64/ibmmpi/bin/mpirun -e MPI_IBV_NO_FORK_SAFE=1 -e MPI_USE_MALLOPT_MMAP_MAX=0 -np 1 /opt/apps/apps/binapps/fluent/19.5/ansys_inc/v195/fluent/fluent19.5.0/lnamd64/2d_node/fluent_mpi.19.5.0 sge node -mpiw ibmmpi -pic shmem -mport 10.10.160.13:10.10.160.13:43233:0

-------------------------------------------------------------------------------
ID    Hostname              Core  O.S.      PID   Vendor                      
-------------------------------------------------------------------------------
n0    node613.pri.csf3.alc  1/24  Linux-64  4383  Intel(R) Xeon(R) E5-2690 v3 
host  node613.pri.csf3.alc        Linux-64  3935  Intel(R) Xeon(R) E5-2690 v3 

MPI Option Selected: ibmmpi
-------------------------------------------------------------------------------


Initializing SGE
Done.
Cleanup script file is /net/scratch2/m83358ym/Workingfolder/env_0/cleanup-fluent-node613.pri.csf3.alces.network-3935.sh

 +------------------------------------------------------------------+
 |                    ANSYS Product Improvement                     |
 |                                                                  |
 |   ANSYS Product Improvement Program helps improve ANSYS          |
 |   products. Participating in this program is like filling out a  |
 |   survey. Without interrupting your work, the software reports   |
 |   anonymous usage information such as errors, machine and        |
 |   solver statistics, features used, etc. to ANSYS. We never      |
 |   use the data to identify or contact you.                       |
 |   The data does NOT contain:                                     |
 |   - Any personally identifiable information including names,     |
 |     IP addresses, file names, part names, etc.                   |
 |   - Any information about your geometry or design specific       |
 |     inputs.                                                      |
 |   You can stop participation at any time. To change your         |
 |   selection go to Help >> ANSYS Product Improvement Program      |
 |   in the GUI.                                                    |
 |   For more information about the ANSYS Privacy Policy, please    |
 |   check: http://www.ansys.com/privacy                            |
 |                                                                  |
 +------------------------------------------------------------------+

Opening wrapper library "/opt/apps/apps/binapps/fluent/19.5/ansys_inc/v195/fluent/../commonfiles/AAS/bin/linx64/libCOWrapper.so"...

Done.
Loading "/opt/apps/apps/binapps/fluent/19.5/ansys_inc/v195/fluent/../commonfiles/AAS/bin/linx64/cowrapper.scm"
Done.
(define (aaslistener-func iter time-step) (display "<aaslistener>
") '() )aaslistener-func
(define (aaslistener-func-freq) 1)aaslistener-func-freq
(register-solution-monitor 'aaslistener-func aaslistener-func #f aaslistener-func-freq)monitor-lambdas
(rpsetvar 'co-simulation/ior_ICoFluentUnit "IOR:010000002000000049444c3a4141535f434f5242412f49436f466c75656e74556e69743a312e30000100000000000000800000000101025f1f0000006e6f64653631332e7072692e637366332e616c6365732e6e6574776f726b00614ca2756b1b00000014010f00525354ec09b263b70107000100000001000000020000003202000000000000000800000001a95c6c004f4154010000001800000001a95c6c0100010001000000010001050901010000000000")co-simulation/ior_icofluentunit
(rp-var-define 'co-simulation/ior_ExceptionHolder "IOR:010000003000000049444c3a4141535f434f5242412f466c75656e742f49466c75656e74457863657074696f6e486f6c6465723a312e3000010000000000000080000000010102001f0000006e6f64653631332e7072692e637366332e616c6365732e6e6574776f726b0000a59e00001b00000014010f00525354ec09b26310ea06000000000001000000010000000002000000000000000800000001000000004f41540100000018000000010000000100010001000000010001050901010000000000" 'string #f)co-simulation/ior_exceptionholder
(rpsetvar 'co-simulation/ior_ExceptionHolder "IOR:010000003000000049444c3a4141535f434f5242412f466c75656e742f49466c75656e74457863657074696f6e486f6c6465723a312e3000010000000000000080000000010102001f0000006e6f64653631332e7072692e637366332e616c6365732e6e6574776f726b0000a59e00001b00000014010f00525354ec09b26310ea06000000000001000000010000000002000000000000000800000001000000004f41540100000018000000010000000100010001000000010001050901010000000000")co-simulation/ior_exceptionholder

Reading journal file testc.jou...

> 
Multicore processors detected. Processor affinity set!
file/read-case-data LaminarFlowControl_smooth_control_151probes.cas
Reading "LaminarFlowControl_smooth_control_151probes.cas"...

Buffering for file scan...



    7412 quadrilateral cells, zone  1, binary.
Warning: reading 8 partition grid onto 1 compute node machine.
         Combining every 8 partitions.
    7412 cell partition ids, zone  1, 1 partitions, binary.
   14638 2D interior faces, zone  2, binary.
      72 2D wall faces, zone  3, binary.
       4 2D velocity-inlet faces, zone  4, binary.
       4 2D velocity-inlet faces, zone  5, binary.
      34 2D velocity-inlet faces, zone  6, binary.
     112 2D wall faces, zone  7, binary.
     112 2D wall faces, zone  8, binary.
      34 2D pressure-outlet faces, zone  9, binary.
    7598 nodes, binary.
7598 node flags, binary.

Warning: this is a single-precision solver.

Building...
     mesh
     materials,
     interface,
     domains,
	mixture
     zones,
	outlet
	top
	bottom
	cylinder-2
	default_interior-1
	inlet
	t1
	t2
	cylinder
     parallel,

Note: 2d, double precision, pressure-based, laminar, transient case read into
      2d, pressure-based, laminar, transient solver.



Done.

Reading "LaminarFlowControl_smooth_control_151probes.dat"...



Parallel variables...
Done.

> rc "LaminarFlowControl_smooth_control_151probes.cas"rd "LaminarFlowControl_smooth_control_151probes.dat"
Reading "LaminarFlowControl_smooth_control_151probes.dat"...



Parallel variables...
Done.
rc "LaminarFlowControl_smooth_control_151probes.cas"rd "LaminarFlowControl_smooth_control_151probes.dat"
Reading "LaminarFlowControl_smooth_control_151probes.dat"...



Parallel variables...
Done.
rc "LaminarFlowControl_smooth_control_151probes.cas"rd "LaminarFlowControl_smooth_control_151probes.dat"
Reading "LaminarFlowControl_smooth_control_151probes.dat"...



Warning: The time step size (0.001) in the session did not match the time step size in the data file (0.001), and has been overwritten by the value from the data file.

Parallel variables...
Done.
(set-parameter-data "starttimestep" "parameter-value" "value" 20340.000000)#f
(set-parameter-data "astart0" "parameter-value" "value" 0.000000)#f
(set-parameter-data "aend0" "parameter-value" "value" 0.004469)#f
(set-parameter-data "astart1" "parameter-value" "value" 0.000000)#f
(set-parameter-data "aend1" "parameter-value" "value" -0.004469)#f
(set-parameter-data "starttimestep" "parameter-value" "value" 20360.000000)#f
(set-parameter-data "astart0" "parameter-value" "value" 0.004469)#f
(set-parameter-data "aend0" "parameter-value" "value" -0.002903)#f
(set-parameter-data "astart1" "parameter-value" "value" -0.004469)#f
(set-parameter-data "aend1" "parameter-value" "value" 0.002903)#f
(set-parameter-data "starttimestep" "parameter-value" "value" 20380.000000)#f
(set-parameter-data "astart0" "parameter-value" "value" -0.002903)#f
(set-parameter-data "aend0" "parameter-value" "value" 0.000096)#f
(set-parameter-data "astart1" "parameter-value" "value" 0.002903)#f
(set-parameter-data "aend1" "parameter-value" "value" -0.000096)#f
(set-parameter-data "starttimestep" "parameter-value" "value" 20400.000000)#f
(set-parameter-data "astart0" "parameter-value" "value" 0.000096)#f
(set-parameter-data "aend0" "parameter-value" "value" -0.004144)#f
(set-parameter-data "astart1" "parameter-value" "value" -0.000096)#f
(set-parameter-data "aend1" "parameter-value" "value" 0.004144)#f
(set-parameter-data "starttimestep" "parameter-value" "value" 20420.000000)#f
(set-parameter-data "astart0" "parameter-value" "value" -0.004144)#f
(set-parameter-data "aend0" "parameter-value" "value" -0.006539)#f
(set-parameter-data "astart1" "parameter-value" "value" 0.004144)#f
(set-parameter-data "aend1" "parameter-value" "value" 0.006539)#f
(set-parameter-data "starttimestep" "parameter-value" "value" 20440.000000)#f
(set-parameter-data "astart0" "parameter-value" "value" -0.006539)#f
(set-parameter-data "aend0" "parameter-value" "value" -0.003066)#f
(set-parameter-data "astart1" "parameter-value" "value" 0.006539)#f
(set-parameter-data "aend1" "parameter-value" "value" 0.003066)#f
(set-parameter-data "starttimestep" "parameter-value" "value" 20460.000000)#f
(set-parameter-data "astart0" "parameter-value" "value" -0.003066)#f
(set-parameter-data "aend0" "parameter-value" "value" -0.000084)#f
(set-parameter-data "astart1" "parameter-value" "value" 0.003066)#f
(set-parameter-data "aend1" "parameter-value" "value" 0.000084)#f
(set-parameter-data "starttimestep" "parameter-value" "value" 20480.000000)#f
(set-parameter-data "astart0" "parameter-value" "value" -0.000084)#f
(set-parameter-data "aend0" "parameter-value" "value" 0.000978)#f
(set-parameter-data "astart1" "parameter-value" "value" 0.000084)#f
(set-parameter-data "aend1" "parameter-value" "value" -0.000978)#f
(set-parameter-data "starttimestep" "parameter-value" "value" 20500.000000)#f
(set-parameter-data "astart0" "parameter-value" "value" 0.000978)#f
(set-parameter-data "aend0" "parameter-value" "value" -0.003263)#f
(set-parameter-data "astart1" "parameter-value" "value" -0.000978)#f
(set-parameter-data "aend1" "parameter-value" "value" 0.003263)#f
(set-parameter-data "starttimestep" "parameter-value" "value" 20520.000000)#f
(set-parameter-data "astart0" "parameter-value" "value" -0.003263)#f
(set-parameter-data "aend0" "parameter-value" "value" -0.002296)#f
(set-parameter-data "astart1" "parameter-value" "value" 0.003263)#f
(set-parameter-data "aend1" "parameter-value" "value" 0.002296)#f
(set-parameter-data "starttimestep" "parameter-value" "value" 20540.000000)#f
(set-parameter-data "astart0" "parameter-value" "value" -0.002296)#f
(set-parameter-data "aend0" "parameter-value" "value" -0.003970)#f
(set-parameter-data "astart1" "parameter-value" "value" 0.002296)#f
(set-parameter-data "aend1" "parameter-value" "value" 0.003970)#f
(set-parameter-data "starttimestep" "parameter-value" "value" 20560.000000)#f
(set-parameter-data "astart0" "parameter-value" "value" -0.003970)#f
(set-parameter-data "aend0" "parameter-value" "value" 0.002495)#f
(set-parameter-data "astart1" "parameter-value" "value" 0.003970)#f
(set-parameter-data "aend1" "parameter-value" "value" -0.002495)#f
(set-parameter-data "starttimestep" "parameter-value" "value" 20580.000000)#f
(set-parameter-data "astart0" "parameter-value" "value" 0.002495)#f
(set-parameter-data "aend0" "parameter-value" "value" 0.003276)#f
(set-parameter-data "astart1" "parameter-value" "value" -0.002495)#f
(set-parameter-data "aend1" "parameter-value" "value" -0.003276)#f
(set-parameter-data "starttimestep" "parameter-value" "value" 20600.000000)#f
(set-parameter-data "astart0" "parameter-value" "value" 0.003276)#f
(set-parameter-data "aend0" "parameter-value" "value" 0.005438)#f
(set-parameter-data "astart1" "parameter-value" "value" -0.003276)#f
(set-parameter-data "aend1" "parameter-value" "value" -0.005438)#f
(set-parameter-data "starttimestep" "parameter-value" "value" 20620.000000)#f
(set-parameter-data "astart0" "parameter-value" "value" 0.005438)#f
(set-parameter-data "aend0" "parameter-value" "value" 0.005233)#f
(set-parameter-data "astart1" "parameter-value" "value" -0.005438)#f
(set-parameter-data "aend1" "parameter-value" "value" -0.005233)#f
(set-parameter-data "starttimestep" "parameter-value" "value" 20640.000000)#f
(set-parameter-data "astart0" "parameter-value" "value" 0.005233)#f
(set-parameter-data "aend0" "parameter-value" "value" 0.002966)#f
(set-parameter-data "astart1" "parameter-value" "value" -0.005233)#f
(set-parameter-data "aend1" "parameter-value" "value" -0.002966)#f
(set-parameter-data "starttimestep" "parameter-value" "value" 20660.000000)#f
(set-parameter-data "astart0" "parameter-value" "value" 0.002966)#f
(set-parameter-data "aend0" "parameter-value" "value" -0.001145)#f
(set-parameter-data "astart1" "parameter-value" "value" -0.002966)#f
(set-parameter-data "aend1" "parameter-value" "value" 0.001145)#f
(set-parameter-data "starttimestep" "parameter-value" "value" 20680.000000)#f
(set-parameter-data "astart0" "parameter-value" "value" -0.001145)#f
(set-parameter-data "aend0" "parameter-value" "value" 0.005808)#f
(set-parameter-data "astart1" "parameter-value" "value" 0.001145)#f
(set-parameter-data "aend1" "parameter-value" "value" -0.005808)#f
(set-parameter-data "starttimestep" "parameter-value" "value" 20700.000000)#f
(set-parameter-data "astart0" "parameter-value" "value" 0.005808)#f
(set-parameter-data "aend0" "parameter-value" "value" 0.004648)#f
(set-parameter-data "astart1" "parameter-value" "value" -0.005808)#f
(set-parameter-data "aend1" "parameter-value" "value" -0.004648)#f
(set-parameter-data "starttimestep" "parameter-value" "value" 20720.000000)#f
(set-parameter-data "astart0" "parameter-value" "value" 0.004648)#f
(set-parameter-data "aend0" "parameter-value" "value" 0.002873)#f
(set-parameter-data "astart1" "parameter-value" "value" -0.004648)#f
(set-parameter-data "aend1" "parameter-value" "value" -0.002873)#f
(set-parameter-data "starttimestep" "parameter-value" "value" 20740.000000)#f
(set-parameter-data "astart0" "parameter-value" "value" 0.002873)#f
(set-parameter-data "aend0" "parameter-value" "value" -0.003807)#f
(set-parameter-data "astart1" "parameter-value" "value" -0.002873)#f
(set-parameter-data "aend1" "parameter-value" "value" 0.003807)#f
(set-parameter-data "starttimestep" "parameter-value" "value" 20760.000000)#f
(set-parameter-data "astart0" "parameter-value" "value" -0.003807)#f
(set-parameter-data "aend0" "parameter-value" "value" 0.004619)#f
(set-parameter-data "astart1" "parameter-value" "value" 0.003807)#f
(set-parameter-data "aend1" "parameter-value" "value" -0.004619)#f
(set-parameter-data "starttimestep" "parameter-value" "value" 20780.000000)#f
(set-parameter-data "astart0" "parameter-value" "value" 0.004619)#f
(set-parameter-data "aend0" "parameter-value" "value" 0.002180)#f
(set-parameter-data "astart1" "parameter-value" "value" -0.004619)#f
(set-parameter-data "aend1" "parameter-value" "value" -0.002180)#f
(set-parameter-data "starttimestep" "parameter-value" "value" 20800.000000)#f
(set-parameter-data "astart0" "parameter-value" "value" 0.002180)#f
(set-parameter-data "aend0" "parameter-value" "value" 0.002446)#f
(set-parameter-data "astart1" "parameter-value" "value" -0.002180)#f
(set-parameter-data "aend1" "parameter-value" "value" -0.002446)#f
(set-parameter-data "starttimestep" "parameter-value" "value" 20820.000000)#f
(set-parameter-data "astart0" "parameter-value" "value" 0.002446)#f
(set-parameter-data "aend0" "parameter-value" "value" 0.003383)#f
(set-parameter-data "astart1" "parameter-value" "value" -0.002446)#f
(set-parameter-data "aend1" "parameter-value" "value" -0.003383)#f
(set-parameter-data "starttimestep" "parameter-value" "value" 20840.000000)#f
(set-parameter-data "astart0" "parameter-value" "value" 0.003383)#f
(set-parameter-data "aend0" "parameter-value" "value" -0.000962)#f
(set-parameter-data "astart1" "parameter-value" "value" -0.003383)#f
(set-parameter-data "aend1" "parameter-value" "value" 0.000962)#f
(set-parameter-data "starttimestep" "parameter-value" "value" 20860.000000)#f
(set-parameter-data "astart0" "parameter-value" "value" -0.000962)#f
(set-parameter-data "aend0" "parameter-value" "value" -0.004463)#f
(set-parameter-data "astart1" "parameter-value" "value" 0.000962)#f
(set-parameter-data "aend1" "parameter-value" "value" 0.004463)#f
(set-parameter-data "starttimestep" "parameter-value" "value" 20880.000000)#f
(set-parameter-data "astart0" "parameter-value" "value" -0.004463)#f
(set-parameter-data "aend0" "parameter-value" "value" -0.001211)#f
(set-parameter-data "astart1" "parameter-value" "value" 0.004463)#f
(set-parameter-data "aend1" "parameter-value" "value" 0.001211)#f
(set-parameter-data "starttimestep" "parameter-value" "value" 20900.000000)#f
(set-parameter-data "astart0" "parameter-value" "value" -0.001211)#f
(set-parameter-data "aend0" "parameter-value" "value" -0.000264)#f
(set-parameter-data "astart1" "parameter-value" "value" 0.001211)#f
(set-parameter-data "aend1" "parameter-value" "value" 0.000264)#f
(set-parameter-data "starttimestep" "parameter-value" "value" 20920.000000)#f
(set-parameter-data "astart0" "parameter-value" "value" -0.000264)#f
(set-parameter-data "aend0" "parameter-value" "value" 0.001248)#f
(set-parameter-data "astart1" "parameter-value" "value" 0.000264)#f
(set-parameter-data "aend1" "parameter-value" "value" -0.001248)#f
(set-parameter-data "starttimestep" "parameter-value" "value" 20940.000000)#f
(set-parameter-data "astart0" "parameter-value" "value" 0.001248)#f
(set-parameter-data "aend0" "parameter-value" "value" -0.001133)#f
(set-parameter-data "astart1" "parameter-value" "value" -0.001248)#f
(set-parameter-data "aend1" "parameter-value" "value" 0.001133)#f
(set-parameter-data "starttimestep" "parameter-value" "value" 20960.000000)#f
(set-parameter-data "astart0" "parameter-value" "value" -0.001133)#f
(set-parameter-data "aend0" "parameter-value" "value" -0.001533)#f
(set-parameter-data "astart1" "parameter-value" "value" 0.001133)#f
(set-parameter-data "aend1" "parameter-value" "value" 0.001533)#f
(set-parameter-data "starttimestep" "parameter-value" "value" 20980.000000)#f
(set-parameter-data "astart0" "parameter-value" "value" -0.001533)#f
(set-parameter-data "aend0" "parameter-value" "value" 0.001951)#f
(set-parameter-data "astart1" "parameter-value" "value" 0.001533)#f
(set-parameter-data "aend1" "parameter-value" "value" -0.001951)#f
(set-parameter-data "starttimestep" "parameter-value" "value" 21000.000000)#f
(set-parameter-data "astart0" "parameter-value" "value" 0.001951)#f
(set-parameter-data "aend0" "parameter-value" "value" 0.003782)#f
(set-parameter-data "astart1" "parameter-value" "value" -0.001951)#f
(set-parameter-data "aend1" "parameter-value" "value" -0.003782)#f
(set-parameter-data "starttimestep" "parameter-value" "value" 21020.000000)#f
(set-parameter-data "astart0" "parameter-value" "value" 0.003782)#f
(set-parameter-data "aend0" "parameter-value" "value" 0.000114)#f
(set-parameter-data "astart1" "parameter-value" "value" -0.003782)#f
(set-parameter-data "aend1" "parameter-value" "value" -0.000114)#f
(set-parameter-data "starttimestep" "parameter-value" "value" 21040.000000)#f
(set-parameter-data "astart0" "parameter-value" "value" 0.000114)#f
(set-parameter-data "aend0" "parameter-value" "value" 0.001980)#f
(set-parameter-data "astart1" "parameter-value" "value" -0.000114)#f
(set-parameter-data "aend1" "parameter-value" "value" -0.001980)#f
(set-parameter-data "starttimestep" "parameter-value" "value" 21060.000000)#f
(set-parameter-data "astart0" "parameter-value" "value" 0.001980)#f
(set-parameter-data "aend0" "parameter-value" "value" 0.001938)#f
(set-parameter-data "astart1" "parameter-value" "value" -0.001980)#f
(set-parameter-data "aend1" "parameter-value" "value" -0.001938)#f
(set-parameter-data "starttimestep" "parameter-value" "value" 21080.000000)#f
(set-parameter-data "astart0" "parameter-value" "value" 0.001938)#f
(set-parameter-data "aend0" "parameter-value" "value" 0.004852)#f
(set-parameter-data "astart1" "parameter-value" "value" -0.001938)#f
(set-parameter-data "aend1" "parameter-value" "value" -0.004852)#f
(set-parameter-data "starttimestep" "parameter-value" "value" 21100.000000)#f
(set-parameter-data "astart0" "parameter-value" "value" 0.004852)#f
(set-parameter-data "aend0" "parameter-value" "value" -0.000089)#f
(set-parameter-data "astart1" "parameter-value" "value" -0.004852)#f
(set-parameter-data "aend1" "parameter-value" "value" 0.000089)#f
(set-parameter-data "starttimestep" "parameter-value" "value" 21120.000000)#f
(set-parameter-data "astart0" "parameter-value" "value" -0.000089)#f
(set-parameter-data "aend0" "parameter-value" "value" 0.001008)#f
(set-parameter-data "astart1" "parameter-value" "value" 0.000089)#f
(set-parameter-data "aend1" "parameter-value" "value" -0.001008)#f
(set-parameter-data "starttimestep" "parameter-value" "value" 21140.000000)#f
(set-parameter-data "astart0" "parameter-value" "value" 0.001008)#f
(set-parameter-data "aend0" "parameter-value" "value" 0.000970)#f
(set-parameter-data "astart1" "parameter-value" "value" -0.001008)#f
(set-parameter-data "aend1" "parameter-value" "value" -0.000970)#f
(set-parameter-data "starttimestep" "parameter-value" "value" 21160.000000)#f
(set-parameter-data "astart0" "parameter-value" "value" 0.000970)#f
(set-parameter-data "aend0" "parameter-value" "value" -0.001110)#f
(set-parameter-data "astart1" "parameter-value" "value" -0.000970)#f
(set-parameter-data "aend1" "parameter-value" "value" 0.001110)#f
(set-parameter-data "starttimestep" "parameter-value" "value" 21180.000000)#f
(set-parameter-data "astart0" "parameter-value" "value" -0.001110)#f
(set-parameter-data "aend0" "parameter-value" "value" 0.001430)#f
(set-parameter-data "astart1" "parameter-value" "value" 0.001110)#f
(set-parameter-data "aend1" "parameter-value" "value" -0.001430)#f
(set-parameter-data "starttimestep" "parameter-value" "value" 21200.000000)#f
(set-parameter-data "astart0" "parameter-value" "value" 0.001430)#f
(set-parameter-data "aend0" "parameter-value" "value" 0.006872)#f
(set-parameter-data "astart1" "parameter-value" "value" -0.001430)#f
(set-parameter-data "aend1" "parameter-value" "value" -0.006872)#f
(set-parameter-data "starttimestep" "parameter-value" "value" 21220.000000)#f
(set-parameter-data "astart0" "parameter-value" "value" 0.006872)#f
(set-parameter-data "aend0" "parameter-value" "value" 0.005131)#f
(set-parameter-data "astart1" "parameter-value" "value" -0.006872)#f
(set-parameter-data "aend1" "parameter-value" "value" -0.005131)#f
(set-parameter-data "starttimestep" "parameter-value" "value" 21240.000000)#f
(set-parameter-data "astart0" "parameter-value" "value" 0.005131)#f
(set-parameter-data "aend0" "parameter-value" "value" -0.004647)#f
(set-parameter-data "astart1" "parameter-value" "value" -0.005131)#f
(set-parameter-data "aend1" "parameter-value" "value" 0.004647)#f
(set-parameter-data "starttimestep" "parameter-value" "value" 21260.000000)#f
(set-parameter-data "astart0" "parameter-value" "value" -0.004647)#f
(set-parameter-data "aend0" "parameter-value" "value" -0.003369)#f
(set-parameter-data "astart1" "parameter-value" "value" 0.004647)#f
(set-parameter-data "aend1" "parameter-value" "value" 0.003369)#f
(set-parameter-data "starttimestep" "parameter-value" "value" 21280.000000)#f
(set-parameter-data "astart0" "parameter-value" "value" -0.003369)#f
(set-parameter-data "aend0" "parameter-value" "value" -0.001043)#f
(set-parameter-data "astart1" "parameter-value" "value" 0.003369)#f
(set-parameter-data "aend1" "parameter-value" "value" 0.001043)#f
(set-parameter-data "starttimestep" "parameter-value" "value" 21300.000000)#f
(set-parameter-data "astart0" "parameter-value" "value" -0.001043)#f
(set-parameter-data "aend0" "parameter-value" "value" -0.002217)#f
(set-parameter-data "astart1" "parameter-value" "value" 0.001043)#f
(set-parameter-data "aend1" "parameter-value" "value" 0.002217)#f
(set-parameter-data "starttimestep" "parameter-value" "value" 21320.000000)#f
(set-parameter-data "astart0" "parameter-value" "value" -0.002217)#f
(set-parameter-data "aend0" "parameter-value" "value" -0.003607)#f
(set-parameter-data "astart1" "parameter-value" "value" 0.002217)#f
(set-parameter-data "aend1" "parameter-value" "value" 0.003607)#f
(set-parameter-data "starttimestep" "parameter-value" "value" 21340.000000)#f
(set-parameter-data "astart0" "parameter-value" "value" -0.003607)#f
(set-parameter-data "aend0" "parameter-value" "value" 0.000148)#f
(set-parameter-data "astart1" "parameter-value" "value" 0.003607)#f
(set-parameter-data "aend1" "parameter-value" "value" -0.000148)#f
(set-parameter-data "starttimestep" "parameter-value" "value" 21360.000000)#f
(set-parameter-data "astart0" "parameter-value" "value" 0.000148)#f
(set-parameter-data "aend0" "parameter-value" "value" 0.003073)#f
(set-parameter-data "astart1" "parameter-value" "value" -0.000148)#f
(set-parameter-data "aend1" "parameter-value" "value" -0.003073)#f
(set-parameter-data "starttimestep" "parameter-value" "value" 21380.000000)#f
(set-parameter-data "astart0" "parameter-value" "value" 0.003073)#f
(set-parameter-data "aend0" "parameter-value" "value" 0.000712)#f
(set-parameter-data "astart1" "parameter-value" "value" -0.003073)#f
(set-parameter-data "aend1" "parameter-value" "value" -0.000712)#f
(set-parameter-data "starttimestep" "parameter-value" "value" 21400.000000)#f
(set-parameter-data "astart0" "parameter-value" "value" 0.000712)#f
(set-parameter-data "aend0" "parameter-value" "value" 0.002789)#f
(set-parameter-data "astart1" "parameter-value" "value" -0.000712)#f
(set-parameter-data "aend1" "parameter-value" "value" -0.002789)#f
(set-parameter-data "starttimestep" "parameter-value" "value" 21420.000000)#f
(set-parameter-data "astart0" "parameter-value" "value" 0.002789)#f
(set-parameter-data "aend0" "parameter-value" "value" 0.000350)#f
(set-parameter-data "astart1" "parameter-value" "value" -0.002789)#f
(set-parameter-data "aend1" "parameter-value" "value" -0.000350)#f
(set-parameter-data "starttimestep" "parameter-value" "value" 21440.000000)#f
(set-parameter-data "astart0" "parameter-value" "value" 0.000350)#f
(set-parameter-data "aend0" "parameter-value" "value" 0.005846)#f
(set-parameter-data "astart1" "parameter-value" "value" -0.000350)#f
(set-parameter-data "aend1" "parameter-value" "value" -0.005846)#f
(set-parameter-data "starttimestep" "parameter-value" "value" 21460.000000)#f
(set-parameter-data "astart0" "parameter-value" "value" 0.005846)#f
(set-parameter-data "aend0" "parameter-value" "value" -0.000364)#f
(set-parameter-data "astart1" "parameter-value" "value" -0.005846)#f
(set-parameter-data "aend1" "parameter-value" "value" 0.000364)#f
(set-parameter-data "starttimestep" "parameter-value" "value" 21480.000000)#f
(set-parameter-data "astart0" "parameter-value" "value" -0.000364)#f
(set-parameter-data "aend0" "parameter-value" "value" -0.005732)#f
(set-parameter-data "astart1" "parameter-value" "value" 0.000364)#f
(set-parameter-data "aend1" "parameter-value" "value" 0.005732)#f
(set-parameter-data "starttimestep" "parameter-value" "value" 21500.000000)#f
(set-parameter-data "astart0" "parameter-value" "value" -0.005732)#f
(set-parameter-data "aend0" "parameter-value" "value" -0.000226)#f
(set-parameter-data "astart1" "parameter-value" "value" 0.005732)#f
(set-parameter-data "aend1" "parameter-value" "value" 0.000226)#f
(set-parameter-data "starttimestep" "parameter-value" "value" 21520.000000)#f
(set-parameter-data "astart0" "parameter-value" "value" -0.000226)#f
(set-parameter-data "aend0" "parameter-value" "value" 0.003388)#f
(set-parameter-data "astart1" "parameter-value" "value" 0.000226)#f
(set-parameter-data "aend1" "parameter-value" "value" -0.003388)#f
(set-parameter-data "starttimestep" "parameter-value" "value" 21540.000000)#f
(set-parameter-data "astart0" "parameter-value" "value" 0.003388)#f
(set-parameter-data "aend0" "parameter-value" "value" -0.006176)#f
(set-parameter-data "astart1" "parameter-value" "value" -0.003388)#f
(set-parameter-data "aend1" "parameter-value" "value" 0.006176)#f
(set-parameter-data "starttimestep" "parameter-value" "value" 21560.000000)#f
(set-parameter-data "astart0" "parameter-value" "value" -0.006176)#f
(set-parameter-data "aend0" "parameter-value" "value" -0.001176)#f
(set-parameter-data "astart1" "parameter-value" "value" 0.006176)#f
(set-parameter-data "aend1" "parameter-value" "value" 0.001176)#f
(set-parameter-data "starttimestep" "parameter-value" "value" 21580.000000)#f
(set-parameter-data "astart0" "parameter-value" "value" -0.001176)#f
(set-parameter-data "aend0" "parameter-value" "value" 0.001890)#f
(set-parameter-data "astart1" "parameter-value" "value" 0.001176)#f
(set-parameter-data "aend1" "parameter-value" "value" -0.001890)#f
(set-parameter-data "starttimestep" "parameter-value" "value" 21600.000000)#f
(set-parameter-data "astart0" "parameter-value" "value" 0.001890)#f
(set-parameter-data "aend0" "parameter-value" "value" 0.005099)#f
(set-parameter-data "astart1" "parameter-value" "value" -0.001890)#f
(set-parameter-data "aend1" "parameter-value" "value" -0.005099)#f
(set-parameter-data "starttimestep" "parameter-value" "value" 21620.000000)#f
(set-parameter-data "astart0" "parameter-value" "value" 0.005099)#f
(set-parameter-data "aend0" "parameter-value" "value" -0.007255)#f
(set-parameter-data "astart1" "parameter-value" "value" -0.005099)#f
(set-parameter-data "aend1" "parameter-value" "value" 0.007255)#f
(set-parameter-data "starttimestep" "parameter-value" "value" 21640.000000)#f
(set-parameter-data "astart0" "parameter-value" "value" -0.007255)#f
(set-parameter-data "aend0" "parameter-value" "value" 0.000621)#f
(set-parameter-data "astart1" "parameter-value" "value" 0.007255)#f
(set-parameter-data "aend1" "parameter-value" "value" -0.000621)#f
(set-parameter-data "starttimestep" "parameter-value" "value" 21660.000000)#f
(set-parameter-data "astart0" "parameter-value" "value" 0.000621)#f
(set-parameter-data "aend0" "parameter-value" "value" 0.000016)#f
(set-parameter-data "astart1" "parameter-value" "value" -0.000621)#f
(set-parameter-data "aend1" "parameter-value" "value" -0.000016)#f
(set-parameter-data "starttimestep" "parameter-value" "value" 21680.000000)#f
(set-parameter-data "astart0" "parameter-value" "value" 0.000016)#f
(set-parameter-data "aend0" "parameter-value" "value" 0.004439)#f
(set-parameter-data "astart1" "parameter-value" "value" -0.000016)#f
(set-parameter-data "aend1" "parameter-value" "value" -0.004439)#f
(set-parameter-data "starttimestep" "parameter-value" "value" 21700.000000)#f
(set-parameter-data "astart0" "parameter-value" "value" 0.004439)#f
(set-parameter-data "aend0" "parameter-value" "value" 0.003759)#f
(set-parameter-data "astart1" "parameter-value" "value" -0.004439)#f
(set-parameter-data "aend1" "parameter-value" "value" -0.003759)#f
(set-parameter-data "starttimestep" "parameter-value" "value" 21720.000000)#f
(set-parameter-data "astart0" "parameter-value" "value" 0.003759)#f
(set-parameter-data "aend0" "parameter-value" "value" -0.002763)#f
(set-parameter-data "astart1" "parameter-value" "value" -0.003759)#f
(set-parameter-data "aend1" "parameter-value" "value" 0.002763)#f
(set-parameter-data "starttimestep" "parameter-value" "value" 21740.000000)#f
(set-parameter-data "astart0" "parameter-value" "value" -0.002763)#f
(set-parameter-data "aend0" "parameter-value" "value" 0.000013)#f
(set-parameter-data "astart1" "parameter-value" "value" 0.002763)#f
(set-parameter-data "aend1" "parameter-value" "value" -0.000013)#f
(set-parameter-data "starttimestep" "parameter-value" "value" 21760.000000)#f
(set-parameter-data "astart0" "parameter-value" "value" 0.000013)#f
(set-parameter-data "aend0" "parameter-value" "value" -0.002187)#f
(set-parameter-data "astart1" "parameter-value" "value" -0.000013)#f
(set-parameter-data "aend1" "parameter-value" "value" 0.002187)#f
(set-parameter-data "starttimestep" "parameter-value" "value" 21780.000000)#f
(set-parameter-data "astart0" "parameter-value" "value" -0.002187)#f
(set-parameter-data "aend0" "parameter-value" "value" 0.000725)#f
(set-parameter-data "astart1" "parameter-value" "value" 0.002187)#f
(set-parameter-data "aend1" "parameter-value" "value" -0.000725)#f
(set-parameter-data "starttimestep" "parameter-value" "value" 21800.000000)#f
(set-parameter-data "astart0" "parameter-value" "value" 0.000725)#f
(set-parameter-data "aend0" "parameter-value" "value" 0.000216)#f
(set-parameter-data "astart1" "parameter-value" "value" -0.000725)#f
(set-parameter-data "aend1" "parameter-value" "value" -0.000216)#f
(set-parameter-data "starttimestep" "parameter-value" "value" 21820.000000)#f
(set-parameter-data "astart0" "parameter-value" "value" 0.000216)#f
(set-parameter-data "aend0" "parameter-value" "value" 0.002723)#f
(set-parameter-data "astart1" "parameter-value" "value" -0.000216)#f
(set-parameter-data "aend1" "parameter-value" "value" -0.002723)#f
(set-parameter-data "starttimestep" "parameter-value" "value" 21840.000000)#f
(set-parameter-data "astart0" "parameter-value" "value" 0.002723)#f
(set-parameter-data "aend0" "parameter-value" "value" 0.001740)#f
(set-parameter-data "astart1" "parameter-value" "value" -0.002723)#f
(set-parameter-data "aend1" "parameter-value" "value" -0.001740)#f
(set-parameter-data "starttimestep" "parameter-value" "value" 21860.000000)#f
(set-parameter-data "astart0" "parameter-value" "value" 0.001740)#f
(set-parameter-data "aend0" "parameter-value" "value" 0.002067)#f
(set-parameter-data "astart1" "parameter-value" "value" -0.001740)#f
(set-parameter-data "aend1" "parameter-value" "value" -0.002067)#f
(set-parameter-data "starttimestep" "parameter-value" "value" 21880.000000)#f
(set-parameter-data "astart0" "parameter-value" "value" 0.002067)#f
(set-parameter-data "aend0" "parameter-value" "value" -0.002928)#f
(set-parameter-data "astart1" "parameter-value" "value" -0.002067)#f
(set-parameter-data "aend1" "parameter-value" "value" 0.002928)#f
(set-parameter-data "starttimestep" "parameter-value" "value" 21900.000000)#f
(set-parameter-data "astart0" "parameter-value" "value" -0.002928)#f
(set-parameter-data "aend0" "parameter-value" "value" 0.002639)#f
(set-parameter-data "astart1" "parameter-value" "value" 0.002928)#f
(set-parameter-data "aend1" "parameter-value" "value" -0.002639)#f
(set-parameter-data "starttimestep" "parameter-value" "value" 21920.000000)#f
(set-parameter-data "astart0" "parameter-value" "value" 0.002639)#f
(set-parameter-data "aend0" "parameter-value" "value" -0.000779)#f
(set-parameter-data "astart1" "parameter-value" "value" -0.002639)#f
(set-parameter-data "aend1" "parameter-value" "value" 0.000779)#f
(set-parameter-data "starttimestep" "parameter-value" "value" 21940.000000)#f
(set-parameter-data "astart0" "parameter-value" "value" -0.000779)#f
(set-parameter-data "aend0" "parameter-value" "value" -0.002797)#f
(set-parameter-data "astart1" "parameter-value" "value" 0.000779)#f
(set-parameter-data "aend1" "parameter-value" "value" 0.002797)#f
(set-parameter-data "starttimestep" "parameter-value" "value" 21960.000000)#f
(set-parameter-data "astart0" "parameter-value" "value" -0.002797)#f
(set-parameter-data "aend0" "parameter-value" "value" 0.002104)#f
(set-parameter-data "astart1" "parameter-value" "value" 0.002797)#f
(set-parameter-data "aend1" "parameter-value" "value" -0.002104)#f
(set-parameter-data "starttimestep" "parameter-value" "value" 21980.000000)#f
(set-parameter-data "astart0" "parameter-value" "value" 0.002104)#f
(set-parameter-data "aend0" "parameter-value" "value" -0.005485)#f
(set-parameter-data "astart1" "parameter-value" "value" -0.002104)#f
(set-parameter-data "aend1" "parameter-value" "value" 0.005485)#f
(set-parameter-data "starttimestep" "parameter-value" "value" 22000.000000)#f
(set-parameter-data "astart0" "parameter-value" "value" -0.005485)#f
(set-parameter-data "aend0" "parameter-value" "value" -0.002912)#f
(set-parameter-data "astart1" "parameter-value" "value" 0.005485)#f
(set-parameter-data "aend1" "parameter-value" "value" 0.002912)#f
(set-parameter-data "starttimestep" "parameter-value" "value" 22020.000000)#f
(set-parameter-data "astart0" "parameter-value" "value" -0.002912)#f
(set-parameter-data "aend0" "parameter-value" "value" 0.000106)#f
(set-parameter-data "astart1" "parameter-value" "value" 0.002912)#f
(set-parameter-data "aend1" "parameter-value" "value" -0.000106)#f
(set-parameter-data "starttimestep" "parameter-value" "value" 22040.000000)#f
(set-parameter-data "astart0" "parameter-value" "value" 0.000106)#f
(set-parameter-data "aend0" "parameter-value" "value" -0.001416)#f
(set-parameter-data "astart1" "parameter-value" "value" -0.000106)#f
(set-parameter-data "aend1" "parameter-value" "value" 0.001416)#f
(set-parameter-data "starttimestep" "parameter-value" "value" 22060.000000)#f
(set-parameter-data "astart0" "parameter-value" "value" -0.001416)#f
(set-parameter-data "aend0" "parameter-value" "value" -0.002561)#f
(set-parameter-data "astart1" "parameter-value" "value" 0.001416)#f
(set-parameter-data "aend1" "parameter-value" "value" 0.002561)#f
(set-parameter-data "starttimestep" "parameter-value" "value" 22080.000000)#f
(set-parameter-data "astart0" "parameter-value" "value" -0.002561)#f
(set-parameter-data "aend0" "parameter-value" "value" -0.004274)#f
(set-parameter-data "astart1" "parameter-value" "value" 0.002561)#f
(set-parameter-data "aend1" "parameter-value" "value" 0.004274)#f
(set-parameter-data "starttimestep" "parameter-value" "value" 22100.000000)#f
(set-parameter-data "astart0" "parameter-value" "value" -0.004274)#f
(set-parameter-data "aend0" "parameter-value" "value" -0.003861)#f
(set-parameter-data "astart1" "parameter-value" "value" 0.004274)#f
(set-parameter-data "aend1" "parameter-value" "value" 0.003861)#f
(set-parameter-data "starttimestep" "parameter-value" "value" 22120.000000)#f
(set-parameter-data "astart0" "parameter-value" "value" -0.003861)#f
(set-parameter-data "aend0" "parameter-value" "value" 0.000308)#f
(set-parameter-data "astart1" "parameter-value" "value" 0.003861)#f
(set-parameter-data "aend1" "parameter-value" "value" -0.000308)#f
(set-parameter-data "starttimestep" "parameter-value" "value" 22140.000000)#f
(set-parameter-data "astart0" "parameter-value" "value" 0.000308)#f
(set-parameter-data "aend0" "parameter-value" "value" 0.002379)#f
(set-parameter-data "astart1" "parameter-value" "value" -0.000308)#f
(set-parameter-data "aend1" "parameter-value" "value" -0.002379)#f
(set-parameter-data "starttimestep" "parameter-value" "value" 22160.000000)#f
(set-parameter-data "astart0" "parameter-value" "value" 0.002379)#f
(set-parameter-data "aend0" "parameter-value" "value" 0.000347)#f
(set-parameter-data "astart1" "parameter-value" "value" -0.002379)#f
(set-parameter-data "aend1" "parameter-value" "value" -0.000347)#f
(set-parameter-data "starttimestep" "parameter-value" "value" 22180.000000)#f
(set-parameter-data "astart0" "parameter-value" "value" 0.000347)#f
(set-parameter-data "aend0" "parameter-value" "value" 0.005798)#f
(set-parameter-data "astart1" "parameter-value" "value" -0.000347)#f
(set-parameter-data "aend1" "parameter-value" "value" -0.005798)#f
(set-parameter-data "starttimestep" "parameter-value" "value" 22200.000000)#f
(set-parameter-data "astart0" "parameter-value" "value" 0.005798)#f
(set-parameter-data "aend0" "parameter-value" "value" -0.005370)#f
(set-parameter-data "astart1" "parameter-value" "value" -0.005798)#f
(set-parameter-data "aend1" "parameter-value" "value" 0.005370)#f
(set-parameter-data "starttimestep" "parameter-value" "value" 22220.000000)#f
(set-parameter-data "astart0" "parameter-value" "value" -0.005370)#f
(set-parameter-data "aend0" "parameter-value" "value" -0.000760)#f
(set-parameter-data "astart1" "parameter-value" "value" 0.005370)#f
(set-parameter-data "aend1" "parameter-value" "value" 0.000760)#f
(set-parameter-data "starttimestep" "parameter-value" "value" 22240.000000)#f
(set-parameter-data "astart0" "parameter-value" "value" -0.000760)#f
(set-parameter-data "aend0" "parameter-value" "value" 0.003027)#f
(set-parameter-data "astart1" "parameter-value" "value" 0.000760)#f
(set-parameter-data "aend1" "parameter-value" "value" -0.003027)#f
(set-parameter-data "starttimestep" "parameter-value" "value" 22260.000000)#f
(set-parameter-data "astart0" "parameter-value" "value" 0.003027)#f
(set-parameter-data "aend0" "parameter-value" "value" -0.000598)#f
(set-parameter-data "astart1" "parameter-value" "value" -0.003027)#f
(set-parameter-data "aend1" "parameter-value" "value" 0.000598)#f
(set-parameter-data "starttimestep" "parameter-value" "value" 22280.000000)#f
(set-parameter-data "astart0" "parameter-value" "value" -0.000598)#f
(set-parameter-data "aend0" "parameter-value" "value" 0.001782)#f
(set-parameter-data "astart1" "parameter-value" "value" 0.000598)#f
(set-parameter-data "aend1" "parameter-value" "value" -0.001782)#f
(set-parameter-data "starttimestep" "parameter-value" "value" 22300.000000)#f
(set-parameter-data "astart0" "parameter-value" "value" 0.001782)#f
(set-parameter-data "aend0" "parameter-value" "value" 0.003410)#f
(set-parameter-data "astart1" "parameter-value" "value" -0.001782)#f
(set-parameter-data "aend1" "parameter-value" "value" -0.003410)#f
(set-parameter-data "starttimestep" "parameter-value" "value" 22320.000000)#f
(set-parameter-data "astart0" "parameter-value" "value" 0.003410)#f
(set-parameter-data "aend0" "parameter-value" "value" 0.000757)#f
(set-parameter-data "astart1" "parameter-value" "value" -0.003410)#f
(set-parameter-data "aend1" "parameter-value" "value" -0.000757)#f
rc "LaminarFlowControl_smooth_control_151probes.cas"rd "LaminarFlowControl_smooth_control_151probes.dat"(set-parameter-data "starttimestep" "parameter-value" "value" 22340.000000)#f
(set-parameter-data "astart0" "parameter-value" "value" 0.000000)#f
(set-parameter-data "aend0" "parameter-value" "value" 0.001934)#f
(set-parameter-data "astart1" "parameter-value" "value" 0.000000)#f
(set-parameter-data "aend1" "parameter-value" "value" -0.001934)#f
(set-parameter-data "starttimestep" "parameter-value" "value" 22360.000000)#f
(set-parameter-data "astart0" "parameter-value" "value" 0.001934)#f
(set-parameter-data "aend0" "parameter-value" "value" 0.003121)#f
(set-parameter-data "astart1" "parameter-value" "value" -0.001934)#f
(set-parameter-data "aend1" "parameter-value" "value" -0.003121)#f
(set-parameter-data "starttimestep" "parameter-value" "value" 22380.000000)#f
(set-parameter-data "astart0" "parameter-value" "value" 0.003121)#f
(set-parameter-data "aend0" "parameter-value" "value" 0.001180)#f
(set-parameter-data "astart1" "parameter-value" "value" -0.003121)#f
(set-parameter-data "aend1" "parameter-value" "value" -0.001180)#f
(set-parameter-data "starttimestep" "parameter-value" "value" 22400.000000)#f
(set-parameter-data "astart0" "parameter-value" "value" 0.001180)#f
(set-parameter-data "aend0" "parameter-value" "value" 0.003648)#f
(set-parameter-data "astart1" "parameter-value" "value" -0.001180)#f
(set-parameter-data "aend1" "parameter-value" "value" -0.003648)#f
(set-parameter-data "starttimestep" "parameter-value" "value" 22420.000000)#f
(set-parameter-data "astart0" "parameter-value" "value" 0.003648)#f
(set-parameter-data "aend0" "parameter-value" "value" -0.000676)#f
(set-parameter-data "astart1" "parameter-value" "value" -0.003648)#f
(set-parameter-data "aend1" "parameter-value" "value" 0.000676)#f
(set-parameter-data "starttimestep" "parameter-value" "value" 22440.000000)#f
(set-parameter-data "astart0" "parameter-value" "value" -0.000676)#f
(set-parameter-data "aend0" "parameter-value" "value" -0.005037)#f
(set-parameter-data "astart1" "parameter-value" "value" 0.000676)#f
(set-parameter-data "aend1" "parameter-value" "value" 0.005037)#f
(set-parameter-data "starttimestep" "parameter-value" "value" 22460.000000)#f
(set-parameter-data "astart0" "parameter-value" "value" -0.005037)#f
(set-parameter-data "aend0" "parameter-value" "value" -0.006362)#f
(set-parameter-data "astart1" "parameter-value" "value" 0.005037)#f
(set-parameter-data "aend1" "parameter-value" "value" 0.006362)#f
(set-parameter-data "starttimestep" "parameter-value" "value" 22480.000000)#f
(set-parameter-data "astart0" "parameter-value" "value" -0.006362)#f
(set-parameter-data "aend0" "parameter-value" "value" 0.001214)#f
(set-parameter-data "astart1" "parameter-value" "value" 0.006362)#f
(set-parameter-data "aend1" "parameter-value" "value" -0.001214)#f
(set-parameter-data "starttimestep" "parameter-value" "value" 22500.000000)#f
(set-parameter-data "astart0" "parameter-value" "value" 0.001214)#f
(set-parameter-data "aend0" "parameter-value" "value" -0.008067)#f
(set-parameter-data "astart1" "parameter-value" "value" -0.001214)#f
(set-parameter-data "aend1" "parameter-value" "value" 0.008067)#f
(set-parameter-data "starttimestep" "parameter-value" "value" 22520.000000)#f
(set-parameter-data "astart0" "parameter-value" "value" -0.008067)#f
(set-parameter-data "aend0" "parameter-value" "value" -0.004993)#f
(set-parameter-data "astart1" "parameter-value" "value" 0.008067)#f
(set-parameter-data "aend1" "parameter-value" "value" 0.004993)#f
(set-parameter-data "starttimestep" "parameter-value" "value" 22540.000000)#f
(set-parameter-data "astart0" "parameter-value" "value" -0.004993)#f
(set-parameter-data "aend0" "parameter-value" "value" 0.003556)#f
(set-parameter-data "astart1" "parameter-value" "value" 0.004993)#f
(set-parameter-data "aend1" "parameter-value" "value" -0.003556)#f
(set-parameter-data "starttimestep" "parameter-value" "value" 22560.000000)#f
(set-parameter-data "astart0" "parameter-value" "value" 0.003556)#f
(set-parameter-data "aend0" "parameter-value" "value" 0.005974)#f
(set-parameter-data "astart1" "parameter-value" "value" -0.003556)#f
(set-parameter-data "aend1" "parameter-value" "value" -0.005974)#f
(set-parameter-data "starttimestep" "parameter-value" "value" 22580.000000)#f
(set-parameter-data "astart0" "parameter-value" "value" 0.005974)#f
(set-parameter-data "aend0" "parameter-value" "value" -0.000585)#f
(set-parameter-data "astart1" "parameter-value" "value" -0.005974)#f
(set-parameter-data "aend1" "parameter-value" "value" 0.000585)#f
(set-parameter-data "starttimestep" "parameter-value" "value" 22600.000000)#f
(set-parameter-data "astart0" "parameter-value" "value" -0.000585)#f
(set-parameter-data "aend0" "parameter-value" "value" -0.003566)#f
(set-parameter-data "astart1" "parameter-value" "value" 0.000585)#f
(set-parameter-data "aend1" "parameter-value" "value" 0.003566)#f
(set-parameter-data "starttimestep" "parameter-value" "value" 22620.000000)#f
(set-parameter-data "astart0" "parameter-value" "value" -0.003566)#f
(set-parameter-data "aend0" "parameter-value" "value" 0.003458)#f
(set-parameter-data "astart1" "parameter-value" "value" 0.003566)#f
(set-parameter-data "aend1" "parameter-value" "value" -0.003458)#f
(set-parameter-data "starttimestep" "parameter-value" "value" 22640.000000)#f
(set-parameter-data "astart0" "parameter-value" "value" 0.003458)#f
(set-parameter-data "aend0" "parameter-value" "value" -0.003794)#f
(set-parameter-data "astart1" "parameter-value" "value" -0.003458)#f
(set-parameter-data "aend1" "parameter-value" "value" 0.003794)#f
(set-parameter-data "starttimestep" "parameter-value" "value" 22660.000000)#f
(set-parameter-data "astart0" "parameter-value" "value" -0.003794)#f
(set-parameter-data "aend0" "parameter-value" "value" 0.002894)#f
(set-parameter-data "astart1" "parameter-value" "value" 0.003794)#f
(set-parameter-data "aend1" "parameter-value" "value" -0.002894)#f
(set-parameter-data "starttimestep" "parameter-value" "value" 22680.000000)#f
(set-parameter-data "astart0" "parameter-value" "value" 0.002894)#f
(set-parameter-data "aend0" "parameter-value" "value" 0.002467)#f
(set-parameter-data "astart1" "parameter-value" "value" -0.002894)#f
(set-parameter-data "aend1" "parameter-value" "value" -0.002467)#f
(set-parameter-data "starttimestep" "parameter-value" "value" 22700.000000)#f
(set-parameter-data "astart0" "parameter-value" "value" 0.002467)#f
(set-parameter-data "aend0" "parameter-value" "value" -0.004419)#f
(set-parameter-data "astart1" "parameter-value" "value" -0.002467)#f
(set-parameter-data "aend1" "parameter-value" "value" 0.004419)#f
(set-parameter-data "starttimestep" "parameter-value" "value" 22720.000000)#f
(set-parameter-data "astart0" "parameter-value" "value" -0.004419)#f
(set-parameter-data "aend0" "parameter-value" "value" -0.000193)#f
(set-parameter-data "astart1" "parameter-value" "value" 0.004419)#f
(set-parameter-data "aend1" "parameter-value" "value" 0.000193)#f
(set-parameter-data "starttimestep" "parameter-value" "value" 22740.000000)#f
(set-parameter-data "astart0" "parameter-value" "value" -0.000193)#f
(set-parameter-data "aend0" "parameter-value" "value" 0.001813)#f
(set-parameter-data "astart1" "parameter-value" "value" 0.000193)#f
(set-parameter-data "aend1" "parameter-value" "value" -0.001813)#f
(set-parameter-data "starttimestep" "parameter-value" "value" 22760.000000)#f
(set-parameter-data "astart0" "parameter-value" "value" 0.001813)#f
(set-parameter-data "aend0" "parameter-value" "value" 0.001903)#f
(set-parameter-data "astart1" "parameter-value" "value" -0.001813)#f
(set-parameter-data "aend1" "parameter-value" "value" -0.001903)#f
(set-parameter-data "starttimestep" "parameter-value" "value" 22780.000000)#f
(set-parameter-data "astart0" "parameter-value" "value" 0.001903)#f
(set-parameter-data "aend0" "parameter-value" "value" -0.002617)#f
(set-parameter-data "astart1" "parameter-value" "value" -0.001903)#f
(set-parameter-data "aend1" "parameter-value" "value" 0.002617)#f
(set-parameter-data "starttimestep" "parameter-value" "value" 22800.000000)#f
(set-parameter-data "astart0" "parameter-value" "value" -0.002617)#f
(set-parameter-data "aend0" "parameter-value" "value" -0.003601)#f
(set-parameter-data "astart1" "parameter-value" "value" 0.002617)#f
(set-parameter-data "aend1" "parameter-value" "value" 0.003601)#f
(set-parameter-data "starttimestep" "parameter-value" "value" 22820.000000)#f
(set-parameter-data "astart0" "parameter-value" "value" -0.003601)#f
(set-parameter-data "aend0" "parameter-value" "value" -0.006271)#f
(set-parameter-data "astart1" "parameter-value" "value" 0.003601)#f
(set-parameter-data "aend1" "parameter-value" "value" 0.006271)#f
(set-parameter-data "starttimestep" "parameter-value" "value" 22840.000000)#f
(set-parameter-data "astart0" "parameter-value" "value" -0.006271)#f
(set-parameter-data "aend0" "parameter-value" "value" 0.008100)#f
(set-parameter-data "astart1" "parameter-value" "value" 0.006271)#f
(set-parameter-data "aend1" "parameter-value" "value" -0.008100)#f
(set-parameter-data "starttimestep" "parameter-value" "value" 22860.000000)#f
(set-parameter-data "astart0" "parameter-value" "value" 0.008100)#f
(set-parameter-data "aend0" "parameter-value" "value" 0.002969)#f
(set-parameter-data "astart1" "parameter-value" "value" -0.008100)#f
(set-parameter-data "aend1" "parameter-value" "value" -0.002969)#f
(set-parameter-data "starttimestep" "parameter-value" "value" 22880.000000)#f
(set-parameter-data "astart0" "parameter-value" "value" 0.002969)#f
(set-parameter-data "aend0" "parameter-value" "value" -0.004946)#f
(set-parameter-data "astart1" "parameter-value" "value" -0.002969)#f
(set-parameter-data "aend1" "parameter-value" "value" 0.004946)#f
(set-parameter-data "starttimestep" "parameter-value" "value" 22900.000000)#f
(set-parameter-data "astart0" "parameter-value" "value" -0.004946)#f
(set-parameter-data "aend0" "parameter-value" "value" -0.000785)#f
(set-parameter-data "astart1" "parameter-value" "value" 0.004946)#f
(set-parameter-data "aend1" "parameter-value" "value" 0.000785)#f
(set-parameter-data "starttimestep" "parameter-value" "value" 22920.000000)#f
(set-parameter-data "astart0" "parameter-value" "value" -0.000785)#f
(set-parameter-data "aend0" "parameter-value" "value" 0.000038)#f
(set-parameter-data "astart1" "parameter-value" "value" 0.000785)#f
(set-parameter-data "aend1" "parameter-value" "value" -0.000038)#f
(set-parameter-data "starttimestep" "parameter-value" "value" 22940.000000)#f
(set-parameter-data "astart0" "parameter-value" "value" 0.000038)#f
(set-parameter-data "aend0" "parameter-value" "value" -0.000229)#f
(set-parameter-data "astart1" "parameter-value" "value" -0.000038)#f
(set-parameter-data "aend1" "parameter-value" "value" 0.000229)#f
(set-parameter-data "starttimestep" "parameter-value" "value" 22960.000000)#f
(set-parameter-data "astart0" "parameter-value" "value" -0.000229)#f
(set-parameter-data "aend0" "parameter-value" "value" -0.004676)#f
(set-parameter-data "astart1" "parameter-value" "value" 0.000229)#f
(set-parameter-data "aend1" "parameter-value" "value" 0.004676)#f
(set-parameter-data "starttimestep" "parameter-value" "value" 22980.000000)#f
(set-parameter-data "astart0" "parameter-value" "value" -0.004676)#f
(set-parameter-data "aend0" "parameter-value" "value" -0.002302)#f
(set-parameter-data "astart1" "parameter-value" "value" 0.004676)#f
(set-parameter-data "aend1" "parameter-value" "value" 0.002302)#f
(set-parameter-data "starttimestep" "parameter-value" "value" 23000.000000)#f
(set-parameter-data "astart0" "parameter-value" "value" -0.002302)#f
(set-parameter-data "aend0" "parameter-value" "value" -0.003088)#f
(set-parameter-data "astart1" "parameter-value" "value" 0.002302)#f
(set-parameter-data "aend1" "parameter-value" "value" 0.003088)#f
(set-parameter-data "starttimestep" "parameter-value" "value" 23020.000000)#f
(set-parameter-data "astart0" "parameter-value" "value" -0.003088)#f
(set-parameter-data "aend0" "parameter-value" "value" 0.001162)#f
(set-parameter-data "astart1" "parameter-value" "value" 0.003088)#f
(set-parameter-data "aend1" "parameter-value" "value" -0.001162)#f
(set-parameter-data "starttimestep" "parameter-value" "value" 23040.000000)#f
(set-parameter-data "astart0" "parameter-value" "value" 0.001162)#f
(set-parameter-data "aend0" "parameter-value" "value" -0.000266)#f
(set-parameter-data "astart1" "parameter-value" "value" -0.001162)#f
(set-parameter-data "aend1" "parameter-value" "value" 0.000266)#f
(set-parameter-data "starttimestep" "parameter-value" "value" 23060.000000)#f
(set-parameter-data "astart0" "parameter-value" "value" -0.000266)#f
(set-parameter-data "aend0" "parameter-value" "value" 0.000075)#f
(set-parameter-data "astart1" "parameter-value" "value" 0.000266)#f
(set-parameter-data "aend1" "parameter-value" "value" -0.000075)#f
(set-parameter-data "starttimestep" "parameter-value" "value" 23080.000000)#f
(set-parameter-data "astart0" "parameter-value" "value" 0.000075)#f
(set-parameter-data "aend0" "parameter-value" "value" 0.002056)#f
(set-parameter-data "astart1" "parameter-value" "value" -0.000075)#f
(set-parameter-data "aend1" "parameter-value" "value" -0.002056)#f
(set-parameter-data "starttimestep" "parameter-value" "value" 23100.000000)#f
(set-parameter-data "astart0" "parameter-value" "value" 0.002056)#f
(set-parameter-data "aend0" "parameter-value" "value" 0.004410)#f
(set-parameter-data "astart1" "parameter-value" "value" -0.002056)#f
(set-parameter-data "aend1" "parameter-value" "value" -0.004410)#f
(set-parameter-data "starttimestep" "parameter-value" "value" 23120.000000)#f
(set-parameter-data "astart0" "parameter-value" "value" 0.004410)#f
(set-parameter-data "aend0" "parameter-value" "value" 0.007812)#f
(set-parameter-data "astart1" "parameter-value" "value" -0.004410)#f
(set-parameter-data "aend1" "parameter-value" "value" -0.007812)#f
(set-parameter-data "starttimestep" "parameter-value" "value" 23140.000000)#f
(set-parameter-data "astart0" "parameter-value" "value" 0.007812)#f
(set-parameter-data "aend0" "parameter-value" "value" -0.002903)#f
(set-parameter-data "astart1" "parameter-value" "value" -0.007812)#f
(set-parameter-data "aend1" "parameter-value" "value" 0.002903)#f
(set-parameter-data "starttimestep" "parameter-value" "value" 23160.000000)#f
(set-parameter-data "astart0" "parameter-value" "value" -0.002903)#f
(set-parameter-data "aend0" "parameter-value" "value" 0.002316)#f
(set-parameter-data "astart1" "parameter-value" "value" 0.002903)#f
(set-parameter-data "aend1" "parameter-value" "value" -0.002316)#f
(set-parameter-data "starttimestep" "parameter-value" "value" 23180.000000)#f
(set-parameter-data "astart0" "parameter-value" "value" 0.002316)#f
(set-parameter-data "aend0" "parameter-value" "value" -0.002514)#f
(set-parameter-data "astart1" "parameter-value" "value" -0.002316)#f
(set-parameter-data "aend1" "parameter-value" "value" 0.002514)#f
(set-parameter-data "starttimestep" "parameter-value" "value" 23200.000000)#f
(set-parameter-data "astart0" "parameter-value" "value" -0.002514)#f
(set-parameter-data "aend0" "parameter-value" "value" 0.003494)#f
(set-parameter-data "astart1" "parameter-value" "value" 0.002514)#f
(set-parameter-data "aend1" "parameter-value" "value" -0.003494)#f
(set-parameter-data "starttimestep" "parameter-value" "value" 23220.000000)#f
(set-parameter-data "astart0" "parameter-value" "value" 0.003494)#f
(set-parameter-data "aend0" "parameter-value" "value" 0.002808)#f
(set-parameter-data "astart1" "parameter-value" "value" -0.003494)#f
(set-parameter-data "aend1" "parameter-value" "value" -0.002808)#f
(set-parameter-data "starttimestep" "parameter-value" "value" 23240.000000)#f
(set-parameter-data "astart0" "parameter-value" "value" 0.002808)#f
(set-parameter-data "aend0" "parameter-value" "value" -0.001241)#f
(set-parameter-data "astart1" "parameter-value" "value" -0.002808)#f
(set-parameter-data "aend1" "parameter-value" "value" 0.001241)#f
(set-parameter-data "starttimestep" "parameter-value" "value" 23260.000000)#f
(set-parameter-data "astart0" "parameter-value" "value" -0.001241)#f
(set-parameter-data "aend0" "parameter-value" "value" 0.000983)#f
(set-parameter-data "astart1" "parameter-value" "value" 0.001241)#f
(set-parameter-data "aend1" "parameter-value" "value" -0.000983)#f
(set-parameter-data "starttimestep" "parameter-value" "value" 23280.000000)#f
(set-parameter-data "astart0" "parameter-value" "value" 0.000983)#f
(set-parameter-data "aend0" "parameter-value" "value" 0.002926)#f
(set-parameter-data "astart1" "parameter-value" "value" -0.000983)#f
(set-parameter-data "aend1" "parameter-value" "value" -0.002926)#f
(set-parameter-data "starttimestep" "parameter-value" "value" 23300.000000)#f
(set-parameter-data "astart0" "parameter-value" "value" 0.002926)#f
(set-parameter-data "aend0" "parameter-value" "value" -0.005740)#f
(set-parameter-data "astart1" "parameter-value" "value" -0.002926)#f
(set-parameter-data "aend1" "parameter-value" "value" 0.005740)#f
(set-parameter-data "starttimestep" "parameter-value" "value" 23320.000000)#f
(set-parameter-data "astart0" "parameter-value" "value" -0.005740)#f
(set-parameter-data "aend0" "parameter-value" "value" -0.008765)#f
(set-parameter-data "astart1" "parameter-value" "value" 0.005740)#f
(set-parameter-data "aend1" "parameter-value" "value" 0.008765)#f
(set-parameter-data "starttimestep" "parameter-value" "value" 23340.000000)#f
(set-parameter-data "astart0" "parameter-value" "value" -0.008765)#f
(set-parameter-data "aend0" "parameter-value" "value" 0.000224)#f
(set-parameter-data "astart1" "parameter-value" "value" 0.008765)#f
(set-parameter-data "aend1" "parameter-value" "value" -0.000224)#f
(set-parameter-data "starttimestep" "parameter-value" "value" 23360.000000)#f
(set-parameter-data "astart0" "parameter-value" "value" 0.000224)#f
(set-parameter-data "aend0" "parameter-value" "value" 0.000104)#f
(set-parameter-data "astart1" "parameter-value" "value" -0.000224)#f
(set-parameter-data "aend1" "parameter-value" "value" -0.000104)#f
(set-parameter-data "starttimestep" "parameter-value" "value" 23380.000000)#f
(set-parameter-data "astart0" "parameter-value" "value" 0.000104)#f
(set-parameter-data "aend0" "parameter-value" "value" 0.006859)#f
(set-parameter-data "astart1" "parameter-value" "value" -0.000104)#f
(set-parameter-data "aend1" "parameter-value" "value" -0.006859)#f
(set-parameter-data "starttimestep" "parameter-value" "value" 23400.000000)#f
(set-parameter-data "astart0" "parameter-value" "value" 0.006859)#f
(set-parameter-data "aend0" "parameter-value" "value" 0.000532)#f
(set-parameter-data "astart1" "parameter-value" "value" -0.006859)#f
(set-parameter-data "aend1" "parameter-value" "value" -0.000532)#f
(set-parameter-data "starttimestep" "parameter-value" "value" 23420.000000)#f
(set-parameter-data "astart0" "parameter-value" "value" 0.000532)#f
(set-parameter-data "aend0" "parameter-value" "value" 0.000103)#f
(set-parameter-data "astart1" "parameter-value" "value" -0.000532)#f
(set-parameter-data "aend1" "parameter-value" "value" -0.000103)#f
(set-parameter-data "starttimestep" "parameter-value" "value" 23440.000000)#f
(set-parameter-data "astart0" "parameter-value" "value" 0.000103)#f
(set-parameter-data "aend0" "parameter-value" "value" -0.001875)#f
(set-parameter-data "astart1" "parameter-value" "value" -0.000103)#f
(set-parameter-data "aend1" "parameter-value" "value" 0.001875)#f
(set-parameter-data "starttimestep" "parameter-value" "value" 23460.000000)#f
(set-parameter-data "astart0" "parameter-value" "value" -0.001875)#f
(set-parameter-data "aend0" "parameter-value" "value" 0.003751)#f
(set-parameter-data "astart1" "parameter-value" "value" 0.001875)#f
(set-parameter-data "aend1" "parameter-value" "value" -0.003751)#f
(set-parameter-data "starttimestep" "parameter-value" "value" 23480.000000)#f
(set-parameter-data "astart0" "parameter-value" "value" 0.003751)#f
(set-parameter-data "aend0" "parameter-value" "value" 0.002927)#f
(set-parameter-data "astart1" "parameter-value" "value" -0.003751)#f
(set-parameter-data "aend1" "parameter-value" "value" -0.002927)#f
(set-parameter-data "starttimestep" "parameter-value" "value" 23500.000000)#f
(set-parameter-data "astart0" "parameter-value" "value" 0.002927)#f
(set-parameter-data "aend0" "parameter-value" "value" 0.007047)#f
(set-parameter-data "astart1" "parameter-value" "value" -0.002927)#f
(set-parameter-data "aend1" "parameter-value" "value" -0.007047)#f
(set-parameter-data "starttimestep" "parameter-value" "value" 23520.000000)#f
(set-parameter-data "astart0" "parameter-value" "value" 0.007047)#f
(set-parameter-data "aend0" "parameter-value" "value" 0.002928)#f
(set-parameter-data "astart1" "parameter-value" "value" -0.007047)#f
(set-parameter-data "aend1" "parameter-value" "value" -0.002928)#f
(set-parameter-data "starttimestep" "parameter-value" "value" 23540.000000)#f
(set-parameter-data "astart0" "parameter-value" "value" 0.002928)#f
(set-parameter-data "aend0" "parameter-value" "value" 0.001042)#f
(set-parameter-data "astart1" "parameter-value" "value" -0.002928)#f
(set-parameter-data "aend1" "parameter-value" "value" -0.001042)#f
(set-parameter-data "starttimestep" "parameter-value" "value" 23560.000000)#f
(set-parameter-data "astart0" "parameter-value" "value" 0.001042)#f
(set-parameter-data "aend0" "parameter-value" "value" -0.002792)#f
(set-parameter-data "astart1" "parameter-value" "value" -0.001042)#f
(set-parameter-data "aend1" "parameter-value" "value" 0.002792)#f
(set-parameter-data "starttimestep" "parameter-value" "value" 23580.000000)#f
(set-parameter-data "astart0" "parameter-value" "value" -0.002792)#f
(set-parameter-data "aend0" "parameter-value" "value" 0.002740)#f
(set-parameter-data "astart1" "parameter-value" "value" 0.002792)#f
(set-parameter-data "aend1" "parameter-value" "value" -0.002740)#f
(set-parameter-data "starttimestep" "parameter-value" "value" 23600.000000)#f
(set-parameter-data "astart0" "parameter-value" "value" 0.002740)#f
(set-parameter-data "aend0" "parameter-value" "value" -0.003477)#f
(set-parameter-data "astart1" "parameter-value" "value" -0.002740)#f
(set-parameter-data "aend1" "parameter-value" "value" 0.003477)#f
(set-parameter-data "starttimestep" "parameter-value" "value" 23620.000000)#f
(set-parameter-data "astart0" "parameter-value" "value" -0.003477)#f
(set-parameter-data "aend0" "parameter-value" "value" 0.000695)#f
(set-parameter-data "astart1" "parameter-value" "value" 0.003477)#f
(set-parameter-data "aend1" "parameter-value" "value" -0.000695)#f
(set-parameter-data "starttimestep" "parameter-value" "value" 23640.000000)#f
(set-parameter-data "astart0" "parameter-value" "value" 0.000695)#f
(set-parameter-data "aend0" "parameter-value" "value" -0.005599)#f
(set-parameter-data "astart1" "parameter-value" "value" -0.000695)#f
(set-parameter-data "aend1" "parameter-value" "value" 0.005599)#f
(set-parameter-data "starttimestep" "parameter-value" "value" 23660.000000)#f
(set-parameter-data "astart0" "parameter-value" "value" -0.005599)#f
(set-parameter-data "aend0" "parameter-value" "value" 0.008284)#f
(set-parameter-data "astart1" "parameter-value" "value" 0.005599)#f
(set-parameter-data "aend1" "parameter-value" "value" -0.008284)#f
(set-parameter-data "starttimestep" "parameter-value" "value" 23680.000000)#f
(set-parameter-data "astart0" "parameter-value" "value" 0.008284)#f
(set-parameter-data "aend0" "parameter-value" "value" -0.007050)#f
(set-parameter-data "astart1" "parameter-value" "value" -0.008284)#f
(set-parameter-data "aend1" "parameter-value" "value" 0.007050)#f
(set-parameter-data "starttimestep" "parameter-value" "value" 23700.000000)#f
(set-parameter-data "astart0" "parameter-value" "value" -0.007050)#f
(set-parameter-data "aend0" "parameter-value" "value" 0.001338)#f
(set-parameter-data "astart1" "parameter-value" "value" 0.007050)#f
(set-parameter-data "aend1" "parameter-value" "value" -0.001338)#f
(set-parameter-data "starttimestep" "parameter-value" "value" 23720.000000)#f
(set-parameter-data "astart0" "parameter-value" "value" 0.001338)#f
(set-parameter-data "aend0" "parameter-value" "value" -0.004511)#f
(set-parameter-data "astart1" "parameter-value" "value" -0.001338)#f
(set-parameter-data "aend1" "parameter-value" "value" 0.004511)#f
(set-parameter-data "starttimestep" "parameter-value" "value" 23740.000000)#f
(set-parameter-data "astart0" "parameter-value" "value" -0.004511)#f
(set-parameter-data "aend0" "parameter-value" "value" -0.000612)#f
(set-parameter-data "astart1" "parameter-value" "value" 0.004511)#f
(set-parameter-data "aend1" "parameter-value" "value" 0.000612)#f
(set-parameter-data "starttimestep" "parameter-value" "value" 23760.000000)#f
(set-parameter-data "astart0" "parameter-value" "value" -0.000612)#f
(set-parameter-data "aend0" "parameter-value" "value" 0.001171)#f
(set-parameter-data "astart1" "parameter-value" "value" 0.000612)#f
(set-parameter-data "aend1" "parameter-value" "value" -0.001171)#f
(set-parameter-data "starttimestep" "parameter-value" "value" 23780.000000)#f
(set-parameter-data "astart0" "parameter-value" "value" 0.001171)#f
(set-parameter-data "aend0" "parameter-value" "value" -0.001798)#f
(set-parameter-data "astart1" "parameter-value" "value" -0.001171)#f
(set-parameter-data "aend1" "parameter-value" "value" 0.001798)#f
(set-parameter-data "starttimestep" "parameter-value" "value" 23800.000000)#f
(set-parameter-data "astart0" "parameter-value" "value" -0.001798)#f
(set-parameter-data "aend0" "parameter-value" "value" -0.000377)#f
(set-parameter-data "astart1" "parameter-value" "value" 0.001798)#f
(set-parameter-data "aend1" "parameter-value" "value" 0.000377)#f
(set-parameter-data "starttimestep" "parameter-value" "value" 23820.000000)#f
(set-parameter-data "astart0" "parameter-value" "value" -0.000377)#f
(set-parameter-data "aend0" "parameter-value" "value" -0.005775)#f
(set-parameter-data "astart1" "parameter-value" "value" 0.000377)#f
(set-parameter-data "aend1" "parameter-value" "value" 0.005775)#f
(set-parameter-data "starttimestep" "parameter-value" "value" 23840.000000)#f
(set-parameter-data "astart0" "parameter-value" "value" -0.005775)#f
(set-parameter-data "aend0" "parameter-value" "value" -0.000198)#f
(set-parameter-data "astart1" "parameter-value" "value" 0.005775)#f
(set-parameter-data "aend1" "parameter-value" "value" 0.000198)#f
(set-parameter-data "starttimestep" "parameter-value" "value" 23860.000000)#f
(set-parameter-data "astart0" "parameter-value" "value" -0.000198)#f
(set-parameter-data "aend0" "parameter-value" "value" 0.003182)#f
(set-parameter-data "astart1" "parameter-value" "value" 0.000198)#f
(set-parameter-data "aend1" "parameter-value" "value" -0.003182)#f
(set-parameter-data "starttimestep" "parameter-value" "value" 23880.000000)#f
(set-parameter-data "astart0" "parameter-value" "value" 0.003182)#f
(set-parameter-data "aend0" "parameter-value" "value" 0.001013)#f
(set-parameter-data "astart1" "parameter-value" "value" -0.003182)#f
(set-parameter-data "aend1" "parameter-value" "value" -0.001013)#f
(set-parameter-data "starttimestep" "parameter-value" "value" 23900.000000)#f
(set-parameter-data "astart0" "parameter-value" "value" 0.001013)#f
(set-parameter-data "aend0" "parameter-value" "value" 0.004128)#f
(set-parameter-data "astart1" "parameter-value" "value" -0.001013)#f
(set-parameter-data "aend1" "parameter-value" "value" -0.004128)#f
(set-parameter-data "starttimestep" "parameter-value" "value" 23920.000000)#f
(set-parameter-data "astart0" "parameter-value" "value" 0.004128)#f
(set-parameter-data "aend0" "parameter-value" "value" -0.000735)#f
(set-parameter-data "astart1" "parameter-value" "value" -0.004128)#f
(set-parameter-data "aend1" "parameter-value" "value" 0.000735)#f
(set-parameter-data "starttimestep" "parameter-value" "value" 23940.000000)#f
(set-parameter-data "astart0" "parameter-value" "value" -0.000735)#f
(set-parameter-data "aend0" "parameter-value" "value" 0.000065)#f
(set-parameter-data "astart1" "parameter-value" "value" 0.000735)#f
(set-parameter-data "aend1" "parameter-value" "value" -0.000065)#f
(set-parameter-data "starttimestep" "parameter-value" "value" 23960.000000)#f
(set-parameter-data "astart0" "parameter-value" "value" 0.000065)#f
(set-parameter-data "aend0" "parameter-value" "value" -0.008490)#f
(set-parameter-data "astart1" "parameter-value" "value" -0.000065)#f
(set-parameter-data "aend1" "parameter-value" "value" 0.008490)#f
(set-parameter-data "starttimestep" "parameter-value" "value" 23980.000000)#f
(set-parameter-data "astart0" "parameter-value" "value" -0.008490)#f
(set-parameter-data "aend0" "parameter-value" "value" 0.002085)#f
(set-parameter-data "astart1" "parameter-value" "value" 0.008490)#f
(set-parameter-data "aend1" "parameter-value" "value" -0.002085)#f
(set-parameter-data "starttimestep" "parameter-value" "value" 24000.000000)#f
(set-parameter-data "astart0" "parameter-value" "value" 0.002085)#f
(set-parameter-data "aend0" "parameter-value" "value" -0.004751)#f
(set-parameter-data "astart1" "parameter-value" "value" -0.002085)#f
(set-parameter-data "aend1" "parameter-value" "value" 0.004751)#f
(set-parameter-data "starttimestep" "parameter-value" "value" 24020.000000)#f
(set-parameter-data "astart0" "parameter-value" "value" -0.004751)#f
(set-parameter-data "aend0" "parameter-value" "value" 0.005172)#f
(set-parameter-data "astart1" "parameter-value" "value" 0.004751)#f
(set-parameter-data "aend1" "parameter-value" "value" -0.005172)#f
(set-parameter-data "starttimestep" "parameter-value" "value" 24040.000000)#f
(set-parameter-data "astart0" "parameter-value" "value" 0.005172)#f
(set-parameter-data "aend0" "parameter-value" "value" 0.006080)#f
(set-parameter-data "astart1" "parameter-value" "value" -0.005172)#f
(set-parameter-data "aend1" "parameter-value" "value" -0.006080)#f
(set-parameter-data "starttimestep" "parameter-value" "value" 24060.000000)#f
(set-parameter-data "astart0" "parameter-value" "value" 0.006080)#f
(set-parameter-data "aend0" "parameter-value" "value" -0.000780)#f
(set-parameter-data "astart1" "parameter-value" "value" -0.006080)#f
(set-parameter-data "aend1" "parameter-value" "value" 0.000780)#f
(set-parameter-data "starttimestep" "parameter-value" "value" 24080.000000)#f
(set-parameter-data "astart0" "parameter-value" "value" -0.000780)#f
(set-parameter-data "aend0" "parameter-value" "value" 0.003171)#f
(set-parameter-data "astart1" "parameter-value" "value" 0.000780)#f
(set-parameter-data "aend1" "parameter-value" "value" -0.003171)#f
(set-parameter-data "starttimestep" "parameter-value" "value" 24100.000000)#f
(set-parameter-data "astart0" "parameter-value" "value" 0.003171)#f
(set-parameter-data "aend0" "parameter-value" "value" -0.005490)#f
(set-parameter-data "astart1" "parameter-value" "value" -0.003171)#f
(set-parameter-data "aend1" "parameter-value" "value" 0.005490)#f
(set-parameter-data "starttimestep" "parameter-value" "value" 24120.000000)#f
(set-parameter-data "astart0" "parameter-value" "value" -0.005490)#f
(set-parameter-data "aend0" "parameter-value" "value" 0.001146)#f
(set-parameter-data "astart1" "parameter-value" "value" 0.005490)#f
(set-parameter-data "aend1" "parameter-value" "value" -0.001146)#f
(set-parameter-data "starttimestep" "parameter-value" "value" 24140.000000)#f
(set-parameter-data "astart0" "parameter-value" "value" 0.001146)#f
(set-parameter-data "aend0" "parameter-value" "value" 0.002177)#f
(set-parameter-data "astart1" "parameter-value" "value" -0.001146)#f
(set-parameter-data "aend1" "parameter-value" "value" -0.002177)#f
(set-parameter-data "starttimestep" "parameter-value" "value" 24160.000000)#f
(set-parameter-data "astart0" "parameter-value" "value" 0.002177)#f
(set-parameter-data "aend0" "parameter-value" "value" 0.000987)#f
(set-parameter-data "astart1" "parameter-value" "value" -0.002177)#f
(set-parameter-data "aend1" "parameter-value" "value" -0.000987)#f
(set-parameter-data "starttimestep" "parameter-value" "value" 24180.000000)#f
(set-parameter-data "astart0" "parameter-value" "value" 0.000987)#f
(set-parameter-data "aend0" "parameter-value" "value" -0.000873)#f
(set-parameter-data "astart1" "parameter-value" "value" -0.000987)#f
(set-parameter-data "aend1" "parameter-value" "value" 0.000873)#f
(set-parameter-data "starttimestep" "parameter-value" "value" 24200.000000)#f
(set-parameter-data "astart0" "parameter-value" "value" -0.000873)#f
(set-parameter-data "aend0" "parameter-value" "value" -0.001867)#f
(set-parameter-data "astart1" "parameter-value" "value" 0.000873)#f
(set-parameter-data "aend1" "parameter-value" "value" 0.001867)#f
(set-parameter-data "starttimestep" "parameter-value" "value" 24220.000000)#f
(set-parameter-data "astart0" "parameter-value" "value" -0.001867)#f
(set-parameter-data "aend0" "parameter-value" "value" -0.002731)#f
(set-parameter-data "astart1" "parameter-value" "value" 0.001867)#f
(set-parameter-data "aend1" "parameter-value" "value" 0.002731)#f
(set-parameter-data "starttimestep" "parameter-value" "value" 24240.000000)#f
(set-parameter-data "astart0" "parameter-value" "value" -0.002731)#f
(set-parameter-data "aend0" "parameter-value" "value" -0.002931)#f
(set-parameter-data "astart1" "parameter-value" "value" 0.002731)#f
(set-parameter-data "aend1" "parameter-value" "value" 0.002931)#f
(set-parameter-data "starttimestep" "parameter-value" "value" 24260.000000)#f
(set-parameter-data "astart0" "parameter-value" "value" -0.002931)#f
(set-parameter-data "aend0" "parameter-value" "value" -0.000161)#f
(set-parameter-data "astart1" "parameter-value" "value" 0.002931)#f
(set-parameter-data "aend1" "parameter-value" "value" 0.000161)#f
(set-parameter-data "starttimestep" "parameter-value" "value" 24280.000000)#f
(set-parameter-data "astart0" "parameter-value" "value" -0.000161)#f
(set-parameter-data "aend0" "parameter-value" "value" -0.000390)#f
(set-parameter-data "astart1" "parameter-value" "value" 0.000161)#f
(set-parameter-data "aend1" "parameter-value" "value" 0.000390)#f
(set-parameter-data "starttimestep" "parameter-value" "value" 24300.000000)#f
(set-parameter-data "astart0" "parameter-value" "value" -0.000390)#f
(set-parameter-data "aend0" "parameter-value" "value" -0.003614)#f
(set-parameter-data "astart1" "parameter-value" "value" 0.000390)#f
(set-parameter-data "aend1" "parameter-value" "value" 0.003614)#f
(set-parameter-data "starttimestep" "parameter-value" "value" 24320.000000)#f
(set-parameter-data "astart0" "parameter-value" "value" -0.003614)#f
(set-parameter-data "aend0" "parameter-value" "value" 0.000440)#f
(set-parameter-data "astart1" "parameter-value" "value" 0.003614)#f
(set-parameter-data "aend1" "parameter-value" "value" -0.000440)#f
rc "LaminarFlowControl_smooth_control_151probes.cas"rd "LaminarFlowControl_smooth_control_151probes.dat"(set-parameter-data "starttimestep" "parameter-value" "value" 24340.000000)#f
(set-parameter-data "astart0" "parameter-value" "value" 0.000000)#f
(set-parameter-data "aend0" "parameter-value" "value" 0.005752)#f
(set-parameter-data "astart1" "parameter-value" "value" 0.000000)#f
(set-parameter-data "aend1" "parameter-value" "value" -0.005752)#f
(set-parameter-data "starttimestep" "parameter-value" "value" 24360.000000)#f
(set-parameter-data "astart0" "parameter-value" "value" 0.005752)#f
(set-parameter-data "aend0" "parameter-value" "value" -0.004586)#f
(set-parameter-data "astart1" "parameter-value" "value" -0.005752)#f
(set-parameter-data "aend1" "parameter-value" "value" 0.004586)#f
(set-parameter-data "starttimestep" "parameter-value" "value" 24380.000000)#f
(set-parameter-data "astart0" "parameter-value" "value" -0.004586)#f
(set-parameter-data "aend0" "parameter-value" "value" -0.007125)#f
[...]
(set-parameter-data "starttimestep" "parameter-value" "value" 47640.000000)#f
(set-parameter-data "astart0" "parameter-value" "value" -0.004788)#f
(set-parameter-data "aend0" "parameter-value" "value" -0.004746)#f
(set-parameter-data "astart1" "parameter-value" "value" 0.004788)#f
(set-parameter-data "aend1" "parameter-value" "value" 0.004746)#f
(set-parameter-data "starttimestep" "parameter-value" "value" 47660.000000)#f
(set-parameter-data "astart0" "parameter-value" "value" -0.004746)#f
(set-parameter-data "aend0" "parameter-value" "value" -0.005896)#f
(set-parameter-data "astart1" "parameter-value" "value" 0.004746)#f
(set-parameter-data "aend1" "parameter-value" "value" 0.005896)#f
(set-parameter-data "starttimestep" "parameter-value" "value" 47680.000000)#f
(set-parameter-data "astart0" "parameter-value" "value" -0.005896)#f
(set-parameter-data "aend0" "parameter-value" "value" 0.000366)#f
(set-parameter-data "astart1" "parameter-value" "value" 0.005896)#f
(set-parameter-data "aend1" "parameter-value" "value" -0.000366)#f
(set-parameter-data "starttimestep" "parameter-value" "value" 47700.000000)#f
(set-parameter-data "astart0" "parameter-value" "value" 0.000366)#f
(set-parameter-data "aend0" "parameter-value" "value" 0.005535)#f
(set-parameter-data "astart1" "parameter-value" "value" -0.000366)#f
(set-parameter-data "aend1" "parameter-value" "value" -0.005535)#f
(set-parameter-data "starttimestep" "parameter-value" "value" 47720.000000)#f
(set-parameter-data "astart0" "parameter-value" "value" 0.005535)#f
(set-parameter-data "aend0" "parameter-value" "value" -0.004880)#f
(set-parameter-data "astart1" "parameter-value" "value" -0.005535)#f
(set-parameter-data "aend1" "parameter-value" "value" 0.004880)#f
(set-parameter-data "starttimestep" "parameter-value" "value" 47740.000000)#f
(set-parameter-data "astart0" "parameter-value" "value" -0.004880)#f
(set-parameter-data "aend0" "parameter-value" "value" 0.004828)#f
(set-parameter-data "astart1" "parameter-value" "value" 0.004880)#f
(set-parameter-data "aend1" "parameter-value" "value" -0.004828)#f
(set-parameter-data "starttimestep" "parameter-value" "value" 47760.000000)#f
(set-parameter-data "astart0" "parameter-value" "value" 0.004828)#f
(set-parameter-data "aend0" "parameter-value" "value" 0.004692)#f
(set-parameter-data "astart1" "parameter-value" "value" -0.004828)#f
(set-parameter-data "aend1" "parameter-value" "value" -0.004692)#f
(set-parameter-data "starttimestep" "parameter-value" "value" 47780.000000)#f
(set-parameter-data "astart0" "parameter-value" "value" 0.004692)#f
(set-parameter-data "aend0" "parameter-value" "value" -0.001254)#f
(set-parameter-data "astart1" "parameter-value" "value" -0.004692)#f
(set-parameter-data "aend1" "parameter-value" "value" 0.001254)#f
(set-parameter-data "starttimestep" "parameter-value" "value" 47800.000000)#f
(set-parameter-data "astart0" "parameter-value" "value" -0.001254)#f
(set-parameter-data "aend0" "parameter-value" "value" -0.002187)#f
(set-parameter-data "astart1" "parameter-value" "value" 0.001254)#f
(set-parameter-data "aend1" "parameter-value" "value" 0.002187)#f
(set-parameter-data "starttimestep" "parameter-value" "value" 47820.000000)#f
(set-parameter-data "astart0" "parameter-value" "value" -0.002187)#f
(set-parameter-data "aend0" "parameter-value" "value" -0.001094)#f
(set-parameter-data "astart1" "parameter-value" "value" 0.002187)#f
(set-parameter-data "aend1" "parameter-value" "value" 0.001094)#f
(set-parameter-data "starttimestep" "parameter-value" "value" 47840.000000)#f
(set-parameter-data "astart0" "parameter-value" "value" -0.001094)#f
(set-parameter-data "aend0" "parameter-value" "value" -0.006476)#f
(set-parameter-data "astart1" "parameter-value" "value" 0.001094)#f
(set-parameter-data "aend1" "parameter-value" "value" 0.006476)#f
(set-parameter-data "starttimestep" "parameter-value" "value" 47860.000000)#f
(set-parameter-data "astart0" "parameter-value" "value" -0.006476)#f
(set-parameter-data "aend0" "parameter-value" "value" -0.003635)#f
(set-parameter-data "astart1" "parameter-value" "value" 0.006476)#f
(set-parameter-data "aend1" "parameter-value" "value" 0.003635)#f
(set-parameter-data "starttimestep" "parameter-value" "value" 47880.000000)#f
(set-parameter-data "astart0" "parameter-value" "value" -0.003635)#f
(set-parameter-data "aend0" "parameter-value" "value" 0.000893)#f
(set-parameter-data "astart1" "parameter-value" "value" 0.003635)#f
(set-parameter-data "aend1" "parameter-value" "value" -0.000893)#f
(set-parameter-data "starttimestep" "parameter-value" "value" 47900.000000)#f
(set-parameter-data "astart0" "parameter-value" "value" 0.000893)#f
(set-parameter-data "aend0" "parameter-value" "value" -0.001281)#f
(set-parameter-data "astart1" "parameter-value" "value" -0.000893)#f
(set-parameter-data "aend1" "parameter-value" "value" 0.001281)#f
(set-parameter-data "starttimestep" "parameter-value" "value" 47920.000000)#f
(set-parameter-data "astart0" "parameter-value" "value" -0.001281)#f
(set-parameter-data "aend0" "parameter-value" "value" -0.005345)#f
(set-parameter-data "astart1" "parameter-value" "value" 0.001281)#f
(set-parameter-data "aend1" "parameter-value" "value" 0.005345)#f
(set-parameter-data "starttimestep" "parameter-value" "value" 47940.000000)#f
(set-parameter-data "astart0" "parameter-value" "value" -0.005345)#f
(set-parameter-data "aend0" "parameter-value" "value" -0.001174)#f
(set-parameter-data "astart1" "parameter-value" "value" 0.005345)#f
(set-parameter-data "aend1" "parameter-value" "value" 0.001174)#f
(set-parameter-data "starttimestep" "parameter-value" "value" 47960.000000)#f
(set-parameter-data "astart0" "parameter-value" "value" -0.001174)#f
(set-parameter-data "aend0" "parameter-value" "value" 0.002231)#f
(set-parameter-data "astart1" "parameter-value" "value" 0.001174)#f
(set-parameter-data "aend1" "parameter-value" "value" -0.002231)#f
(set-parameter-data "starttimestep" "parameter-value" "value" 47980.000000)#f
(set-parameter-data "astart0" "parameter-value" "value" 0.002231)#f
(set-parameter-data "aend0" "parameter-value" "value" 0.003647)#f
(set-parameter-data "astart1" "parameter-value" "value" -0.002231)#f
(set-parameter-data "aend1" "parameter-value" "value" -0.003647)#f
(set-parameter-data "starttimestep" "parameter-value" "value" 48000.000000)#f
(set-parameter-data "astart0" "parameter-value" "value" 0.003647)#f
(set-parameter-data "aend0" "parameter-value" "value" -0.000981)#f
(set-parameter-data "astart1" "parameter-value" "value" -0.003647)#f
(set-parameter-data "aend1" "parameter-value" "value" 0.000981)#f
(set-parameter-data "starttimestep" "parameter-value" "value" 48020.000000)#f
(set-parameter-data "astart0" "parameter-value" "value" -0.000981)#f
(set-parameter-data "aend0" "parameter-value" "value" -0.002036)#f
(set-parameter-data "astart1" "parameter-value" "value" 0.000981)#f
(set-parameter-data "aend1" "parameter-value" "value" 0.002036)#f
(set-parameter-data "starttimestep" "parameter-value" "value" 48040.000000)#f
(set-parameter-data "astart0" "parameter-value" "value" -0.002036)#f
(set-parameter-data "aend0" "parameter-value" "value" 0.007421)#f
(set-parameter-data "astart1" "parameter-value" "value" 0.002036)#f
(set-parameter-data "aend1" "parameter-value" "value" -0.007421)#f
(set-parameter-data "starttimestep" "parameter-value" "value" 48060.000000)#f
(set-parameter-data "astart0" "parameter-value" "value" 0.007421)#f
(set-parameter-data "aend0" "parameter-value" "value" 0.002111)#f
(set-parameter-data "astart1" "parameter-value" "value" -0.007421)#f
(set-parameter-data "aend1" "parameter-value" "value" -0.002111)#f
(set-parameter-data "starttimestep" "parameter-value" "value" 48080.000000)#f
(set-parameter-data "astart0" "parameter-value" "value" 0.002111)#f
(set-parameter-data "aend0" "parameter-value" "value" -0.005910)#f
(set-parameter-data "astart1" "parameter-value" "value" -0.002111)#f
(set-parameter-data "aend1" "parameter-value" "value" 0.005910)#f
(set-parameter-data "starttimestep" "parameter-value" "value" 48100.000000)#f
(set-parameter-data "astart0" "parameter-value" "value" -0.005910)#f
(set-parameter-data "aend0" "parameter-value" "value" 0.007321)#f
(set-parameter-data "astart1" "parameter-value" "value" 0.005910)#f
(set-parameter-data "aend1" "parameter-value" "value" -0.007321)#f
(set-parameter-data "starttimestep" "parameter-value" "value" 48120.000000)#f
(set-parameter-data "astart0" "parameter-value" "value" 0.007321)#f
(set-parameter-data "aend0" "parameter-value" "value" -0.000123)#f
(set-parameter-data "astart1" "parameter-value" "value" -0.007321)#f
(set-parameter-data "aend1" "parameter-value" "value" 0.000123)#f
(set-parameter-data "starttimestep" "parameter-value" "value" 48140.000000)#f
(set-parameter-data "astart0" "parameter-value" "value" -0.000123)#f
(set-parameter-data "aend0" "parameter-value" "value" -0.004991)#f
(set-parameter-data "astart1" "parameter-value" "value" 0.000123)#f
(set-parameter-data "aend1" "parameter-value" "value" 0.004991)#f
(set-parameter-data "starttimestep" "parameter-value" "value" 48160.000000)#f
(set-parameter-data "astart0" "parameter-value" "value" -0.004991)#f
(set-parameter-data "aend0" "parameter-value" "value" -0.002943)#f
(set-parameter-data "astart1" "parameter-value" "value" 0.004991)#f
(set-parameter-data "aend1" "parameter-value" "value" 0.002943)#f
(set-parameter-data "starttimestep" "parameter-value" "value" 48180.000000)#f
(set-parameter-data "astart0" "parameter-value" "value" -0.002943)#f
(set-parameter-data "aend0" "parameter-value" "value" -0.003059)#f
(set-parameter-data "astart1" "parameter-value" "value" 0.002943)#f
(set-parameter-data "aend1" "parameter-value" "value" 0.003059)#f
(set-parameter-data "starttimestep" "parameter-value" "value" 48200.000000)#f
(set-parameter-data "astart0" "parameter-value" "value" -0.003059)#f
(set-parameter-data "aend0" "parameter-value" "value" 0.001167)#f
(set-parameter-data "astart1" "parameter-value" "value" 0.003059)#f
(set-parameter-data "aend1" "parameter-value" "value" -0.001167)#f
(set-parameter-data "starttimestep" "parameter-value" "value" 48220.000000)#f
(set-parameter-data "astart0" "parameter-value" "value" 0.001167)#f
(set-parameter-data "aend0" "parameter-value" "value" 0.004640)#f
(set-parameter-data "astart1" "parameter-value" "value" -0.001167)#f
(set-parameter-data "aend1" "parameter-value" "value" -0.004640)#f
(set-parameter-data "starttimestep" "parameter-value" "value" 48240.000000)#f
(set-parameter-data "astart0" "parameter-value" "value" 0.004640)#f
(set-parameter-data "aend0" "parameter-value" "value" 0.002357)#f
(set-parameter-data "astart1" "parameter-value" "value" -0.004640)#f
(set-parameter-data "aend1" "parameter-value" "value" -0.002357)#f
(set-parameter-data "starttimestep" "parameter-value" "value" 48260.000000)#f
(set-parameter-data "astart0" "parameter-value" "value" 0.002357)#f
(set-parameter-data "aend0" "parameter-value" "value" -0.002545)#f
(set-parameter-data "astart1" "parameter-value" "value" -0.002357)#f
(set-parameter-data "aend1" "parameter-value" "value" 0.002545)#f
(set-parameter-data "starttimestep" "parameter-value" "value" 48280.000000)#f
(set-parameter-data "astart0" "parameter-value" "value" -0.002545)#f
(set-parameter-data "aend0" "parameter-value" "value" -0.005989)#f
(set-parameter-data "astart1" "parameter-value" "value" 0.002545)#f
(set-parameter-data "aend1" "parameter-value" "value" 0.005989)#f
(set-parameter-data "starttimestep" "parameter-value" "value" 48300.000000)#f
(set-parameter-data "astart0" "parameter-value" "value" -0.005989)#f
(set-parameter-data "aend0" "parameter-value" "value" 0.003317)#f
(set-parameter-data "astart1" "parameter-value" "value" 0.005989)#f
(set-parameter-data "aend1" "parameter-value" "value" -0.003317)#f
(set-parameter-data "starttimestep" "parameter-value" "value" 48320.000000)#f
(set-parameter-data "astart0" "parameter-value" "value" 0.003317)#f
(set-parameter-data "aend0" "parameter-value" "value" 0.003410)#f
(set-parameter-data "astart1" "parameter-value" "value" -0.003317)#f
(set-parameter-data "aend1" "parameter-value" "value" -0.003410)#f
rc "LaminarFlowControl_smooth_control_151probes.cas"rd "LaminarFlowControl_smooth_control_151probes.dat"(set-parameter-data "starttimestep" "parameter-value" "value" 48340.000000)#f
(set-parameter-data "astart0" "parameter-value" "value" 0.000000)#f
(set-parameter-data "aend0" "parameter-value" "value" 0.001823)#f
(set-parameter-data "astart1" "parameter-value" "value" 0.000000)#f
(set-parameter-data "aend1" "parameter-value" "value" -0.001823)#f
(set-parameter-data "starttimestep" "parameter-value" "value" 48360.000000)#f
(set-parameter-data "astart0" "parameter-value" "value" 0.001823)#f
(set-parameter-data "aend0" "parameter-value" "value" 0.003159)#f
(set-parameter-data "astart1" "parameter-value" "value" -0.001823)#f
(set-parameter-data "aend1" "parameter-value" "value" -0.003159)#f
(set-parameter-data "starttimestep" "parameter-value" "value" 48380.000000)#f
(set-parameter-data "astart0" "parameter-value" "value" 0.003159)#f
(set-parameter-data "aend0" "parameter-value" "value" -0.001759)#f
(set-parameter-data "astart1" "parameter-value" "value" -0.003159)#f
(set-parameter-data "aend1" "parameter-value" "value" 0.001759)#f
(set-parameter-data "starttimestep" "parameter-value" "value" 48400.000000)#f
(set-parameter-data "astart0" "parameter-value" "value" -0.001759)#f
(set-parameter-data "aend0" "parameter-value" "value" 0.004676)#f
(set-parameter-data "astart1" "parameter-value" "value" 0.001759)#f
(set-parameter-data "aend1" "parameter-value" "value" -0.004676)#f
(set-parameter-data "starttimestep" "parameter-value" "value" 48420.000000)#f
(set-parameter-data "astart0" "parameter-value" "value" 0.004676)#f
(set-parameter-data "aend0" "parameter-value" "value" 0.003132)#f
(set-parameter-data "astart1" "parameter-value" "value" -0.004676)#f
(set-parameter-data "aend1" "parameter-value" "value" -0.003132)#f
(set-parameter-data "starttimestep" "parameter-value" "value" 48440.000000)#f
(set-parameter-data "astart0" "parameter-value" "value" 0.003132)#f
(set-parameter-data "aend0" "parameter-value" "value" 0.007738)#f
(set-parameter-data "astart1" "parameter-value" "value" -0.003132)#f
(set-parameter-data "aend1" "parameter-value" "value" -0.007738)#f
(set-parameter-data "starttimestep" "parameter-value" "value" 48460.000000)#f
(set-parameter-data "astart0" "parameter-value" "value" 0.007738)#f
(set-parameter-data "aend0" "parameter-value" "value" 0.004589)#f
(set-parameter-data "astart1" "parameter-value" "value" -0.007738)#f
(set-parameter-data "aend1" "parameter-value" "value" -0.004589)#f
(set-parameter-data "starttimestep" "parameter-value" "value" 48480.000000)#f
(set-parameter-data "astart0" "parameter-value" "value" 0.004589)#f
(set-parameter-data "aend0" "parameter-value" "value" 0.005710)#f
(set-parameter-data "astart1" "parameter-value" "value" -0.004589)#f
(set-parameter-data "aend1" "parameter-value" "value" -0.005710)#f
(set-parameter-data "starttimestep" "parameter-value" "value" 48500.000000)#f
(set-parameter-data "astart0" "parameter-value" "value" 0.005710)#f
(set-parameter-data "aend0" "parameter-value" "value" 0.000895)#f
(set-parameter-data "astart1" "parameter-value" "value" -0.005710)#f
(set-parameter-data "aend1" "parameter-value" "value" -0.000895)#f
(set-parameter-data "starttimestep" "parameter-value" "value" 48520.000000)#f
(set-parameter-data "astart0" "parameter-value" "value" 0.000895)#f
(set-parameter-data "aend0" "parameter-value" "value" -0.001499)#f
(set-parameter-data "astart1" "parameter-value" "value" -0.000895)#f
(set-parameter-data "aend1" "parameter-value" "value" 0.001499)#f
(set-parameter-data "starttimestep" "parameter-value" "value" 48540.000000)#f
(set-parameter-data "astart0" "parameter-value" "value" -0.001499)#f
(set-parameter-data "aend0" "parameter-value" "value" 0.002823)#f
(set-parameter-data "astart1" "parameter-value" "value" 0.001499)#f
(set-parameter-data "aend1" "parameter-value" "value" -0.002823)#f
(set-parameter-data "starttimestep" "parameter-value" "value" 48560.000000)#f
(set-parameter-data "astart0" "parameter-value" "value" 0.002823)#f
(set-parameter-data "aend0" "parameter-value" "value" 0.005765)#f
(set-parameter-data "astart1" "parameter-value" "value" -0.002823)#f
(set-parameter-data "aend1" "parameter-value" "value" -0.005765)#f
(set-parameter-data "starttimestep" "parameter-value" "value" 48580.000000)#f
(set-parameter-data "astart0" "parameter-value" "value" 0.005765)#f
(set-parameter-data "aend0" "parameter-value" "value" -0.006403)#f
(set-parameter-data "astart1" "parameter-value" "value" -0.005765)#f
(set-parameter-data "aend1" "parameter-value" "value" 0.006403)#f
(set-parameter-data "starttimestep" "parameter-value" "value" 48600.000000)#f
(set-parameter-data "astart0" "parameter-value" "value" -0.006403)#f
(set-parameter-data "aend0" "parameter-value" "value" -0.004416)#f
(set-parameter-data "astart1" "parameter-value" "value" 0.006403)#f
(set-parameter-data "aend1" "parameter-value" "value" 0.004416)#f
(set-parameter-data "starttimestep" "parameter-value" "value" 48620.000000)#f
(set-parameter-data "astart0" "parameter-value" "value" -0.004416)#f
(set-parameter-data "aend0" "parameter-value" "value" 0.003428)#f
(set-parameter-data "astart1" "parameter-value" "value" 0.004416)#f
(set-parameter-data "aend1" "parameter-value" "value" -0.003428)#f
(set-parameter-data "starttimestep" "parameter-value" "value" 48640.000000)#f
(set-parameter-data "astart0" "parameter-value" "value" 0.003428)#f
(set-parameter-data "aend0" "parameter-value" "value" 0.004198)#f
(set-parameter-data "astart1" "parameter-value" "value" -0.003428)#f
(set-parameter-data "aend1" "parameter-value" "value" -0.004198)#f
(set-parameter-data "starttimestep" "parameter-value" "value" 48660.000000)#f
(set-parameter-data "astart0" "parameter-value" "value" 0.004198)#f
(set-parameter-data "aend0" "parameter-value" "value" 0.006122)#f
(set-parameter-data "astart1" "parameter-value" "value" -0.004198)#f
(set-parameter-data "aend1" "parameter-value" "value" -0.006122)#f
(set-parameter-data "starttimestep" "parameter-value" "value" 48680.000000)#f
(set-parameter-data "astart0" "parameter-value" "value" 0.006122)#f
(set-parameter-data "aend0" "parameter-value" "value" 0.001358)#f
(set-parameter-data "astart1" "parameter-value" "value" -0.006122)#f
(set-parameter-data "aend1" "parameter-value" "value" -0.001358)#f
(set-parameter-data "starttimestep" "parameter-value" "value" 48700.000000)#f
(set-parameter-data "astart0" "parameter-value" "value" 0.001358)#f
(set-parameter-data "aend0" "parameter-value" "value" -0.004608)#f
(set-parameter-data "astart1" "parameter-value" "value" -0.001358)#f
(set-parameter-data "aend1" "parameter-value" "value" 0.004608)#f
(set-parameter-data "starttimestep" "parameter-value" "value" 48720.000000)#f
(set-parameter-data "astart0" "parameter-value" "value" -0.004608)#f
(set-parameter-data "aend0" "parameter-value" "value" 0.000716)#f
(set-parameter-data "astart1" "parameter-value" "value" 0.004608)#f
(set-parameter-data "aend1" "parameter-value" "value" -0.000716)#f
(set-parameter-data "starttimestep" "parameter-value" "value" 48740.000000)#f
(set-parameter-data "astart0" "parameter-value" "value" 0.000716)#f
(set-parameter-data "aend0" "parameter-value" "value" 0.005324)#f
(set-parameter-data "astart1" "parameter-value" "value" -0.000716)#f
(set-parameter-data "aend1" "parameter-value" "value" -0.005324)#f
(set-parameter-data "starttimestep" "parameter-value" "value" 48760.000000)#f
(set-parameter-data "astart0" "parameter-value" "value" 0.005324)#f
(set-parameter-data "aend0" "parameter-value" "value" 0.000989)#f
(set-parameter-data "astart1" "parameter-value" "value" -0.005324)#f
(set-parameter-data "aend1" "parameter-value" "value" -0.000989)#f
