/opt/apps/apps/binapps/fluent/19.5/ansys_inc/v195/fluent/fluent19.5.0/bin/fluent -r19.5.0 2d -g -i testc.jou -aas -sgeup
/opt/apps/apps/binapps/fluent/19.5/ansys_inc/v195/fluent/fluent19.5.0/cortex/lnamd64/cortex.19.5.0 -f fluent -g -aas -i testc.jou (fluent "2d -pshmem  -host -alnamd64 -r19.5.0 -t1 -mpi=ibmmpi -path/opt/apps/apps/binapps/fluent/19.5/ansys_inc/v195/fluent -sge -ssh")
/opt/apps/apps/binapps/fluent/19.5/ansys_inc/v195/fluent/fluent19.5.0/bin/fluent -r19.5.0 2d -pshmem -host -alnamd64 -t1 -mpi=ibmmpi -path/opt/apps/apps/binapps/fluent/19.5/ansys_inc/v195/fluent -sge -ssh -cx node690.pri.csf3.alces.network:35808:36820
/opt/apps/apps/binapps/fluent/19.5/ansys_inc/v195/fluent/fluent19.5.0/bin/fluent -r19.5.0 2d -pshmem -host -alnamd64 -t1 -mpi=ibmmpi -path/opt/apps/apps/binapps/fluent/19.5/ansys_inc/v195/fluent -sge -ssh -cx node690.pri.csf3.alces.network:35808:36820 -sgeup
Starting /opt/apps/apps/binapps/fluent/19.5/ansys_inc/v195/fluent/fluent19.5.0/lnamd64/2d_host/fluent.19.5.0 sge host -cx node690.pri.csf3.alces.network:35808:36820 "(list (rpsetvar (QUOTE parallel/function) "fluent 2d -flux -node -alnamd64 -r19.5.0 -t1 -pshmem -mpi=ibmmpi -sge -ssh") (rpsetvar (QUOTE parallel/rhost) "") (rpsetvar (QUOTE parallel/ruser) "") (rpsetvar (QUOTE parallel/nprocs_string) "1") (rpsetvar (QUOTE parallel/auto-spawn?) #t) (rpsetvar (QUOTE parallel/trace-level) 0) (rpsetvar (QUOTE parallel/remote-shell) 1) (rpsetvar (QUOTE parallel/path) "/opt/apps/apps/binapps/fluent/19.5/ansys_inc/v195/fluent") (rpsetvar (QUOTE parallel/hostsfile) "") )"

              Welcome to ANSYS Fluent 2019 R3

              Copyright 1987-2019 ANSYS, Inc. All Rights Reserved.
              Unauthorized use, distribution or duplication is prohibited.
              This product is subject to U.S. laws governing export and re-export.
              For full Legal Notice, see documentation.

Build Time: Aug 05 2019 15:40:31 EDT  Build Id: 10249  
 

     --------------------------------------------------------------
     This is an academic version of ANSYS FLUENT. Usage of this product
     license is limited to the terms and conditions specified in your ANSYS
     license form, additional terms section.
     --------------------------------------------------------------
Host spawning Node 0 on machine "node690.pri.csf3.alces.network" (unix).
/opt/apps/apps/binapps/fluent/19.5/ansys_inc/v195/fluent/fluent19.5.0/bin/fluent -r19.5.0 2d -flux -node -alnamd64 -t1 -pshmem -mpi=ibmmpi -sge -ssh -mport 10.10.160.90:10.10.160.90:35737:0
/opt/apps/apps/binapps/fluent/19.5/ansys_inc/v195/fluent/fluent19.5.0/bin/fluent -r19.5.0 2d -flux -node -alnamd64 -t1 -pshmem -mpi=ibmmpi -sge -ssh -mport 10.10.160.90:10.10.160.90:35737:0 -sgeup
Starting /opt/apps/apps/binapps/fluent/19.5/ansys_inc/v195/fluent/fluent19.5.0/multiport/mpi/lnamd64/ibmmpi/bin/mpirun -e MPI_IBV_NO_FORK_SAFE=1 -e MPI_USE_MALLOPT_MMAP_MAX=0 -np 1 /opt/apps/apps/binapps/fluent/19.5/ansys_inc/v195/fluent/fluent19.5.0/lnamd64/2d_node/fluent_mpi.19.5.0 sge node -mpiw ibmmpi -pic shmem -mport 10.10.160.90:10.10.160.90:35737:0

--------------------------------------------------------------------------------
ID    Hostname              Core  O.S.      PID    Vendor                      
--------------------------------------------------------------------------------
n0    node690.pri.csf3.alc  1/24  Linux-64  22171  Intel(R) Xeon(R) E5-2690 v3 
host  node690.pri.csf3.alc        Linux-64  21719  Intel(R) Xeon(R) E5-2690 v3 

MPI Option Selected: ibmmpi
--------------------------------------------------------------------------------


Initializing SGE
Done.
Cleanup script file is /net/scratch2/m83358ym/Workingfolder/env_31/cleanup-fluent-node690.pri.csf3.alces.network-21719.sh

 +------------------------------------------------------------------+
 |                    ANSYS Product Improvement                     |
 |                                                                  |
 |   ANSYS Product Improvement Program helps improve ANSYS          |
 |   products. Participating in this program is like filling out a  |
 |   survey. Without interrupting your work, the software reports   |
 |   anonymous usage information such as errors, machine and        |
 |   solver statistics, features used, etc. to ANSYS. We never      |
 |   use the data to identify or contact you.                       |
 |   The data does NOT contain:                                     |
 |   - Any personally identifiable information including names,     |
 |     IP addresses, file names, part names, etc.                   |
 |   - Any information about your geometry or design specific       |
 |     inputs.                                                      |
 |   You can stop participation at any time. To change your         |
 |   selection go to Help >> ANSYS Product Improvement Program      |
 |   in the GUI.                                                    |
 |   For more information about the ANSYS Privacy Policy, please    |
 |   check: http://www.ansys.com/privacy                            |
 |                                                                  |
 +------------------------------------------------------------------+

Opening wrapper library "/opt/apps/apps/binapps/fluent/19.5/ansys_inc/v195/fluent/../commonfiles/AAS/bin/linx64/libCOWrapper.so"...

Done.
Loading "/opt/apps/apps/binapps/fluent/19.5/ansys_inc/v195/fluent/../commonfiles/AAS/bin/linx64/cowrapper.scm"
Done.
(define (aaslistener-func iter time-step) (display "<aaslistener>
") '() )aaslistener-func
(define (aaslistener-func-freq) 1)aaslistener-func-freq
(register-solution-monitor 'aaslistener-func aaslistener-func #f aaslistener-func-freq)monitor-lambdas
(rpsetvar 'co-simulation/ior_ICoFluentUnit "IOR:010000002000000049444c3a4141535f434f5242412f49436f466c75656e74556e69743a312e3000010000000000000080000000010102001f0000006e6f64653639302e7072692e637366332e616c6365732e6e6574776f726b0000f88000001b00000014010f005253546c0ab26325bb01000100000001000000020000000002000000000000000800000001093c8b004f4154010000001800000001093c8b0100010001000000010001050901010000000000")co-simulation/ior_icofluentunit
(rp-var-define 'co-simulation/ior_ExceptionHolder "IOR:010000003000000049444c3a4141535f434f5242412f466c75656e742f49466c75656e74457863657074696f6e486f6c6465723a312e3000010000000000000080000000010102001f0000006e6f64653639302e7072692e637366332e616c6365732e6e6574776f726b00002f8700001b00000014010f005253546c0ab26326ad01000000000001000000010000000002000000000000000800000001000000004f41540100000018000000010000000100010001000000010001050901010000000000" 'string #f)co-simulation/ior_exceptionholder
(rpsetvar 'co-simulation/ior_ExceptionHolder "IOR:010000003000000049444c3a4141535f434f5242412f466c75656e742f49466c75656e74457863657074696f6e486f6c6465723a312e3000010000000000000080000000010102001f0000006e6f64653639302e7072692e637366332e616c6365732e6e6574776f726b00002f8700001b00000014010f005253546c0ab26326ad01000000000001000000010000000002000000000000000800000001000000004f41540100000018000000010000000100010001000000010001050901010000000000")co-simulation/ior_exceptionholder

Reading journal file testc.jou...

> 
Multicore processors detected. Processor affinity set!
file/read-case-data LaminarFlowControl_smooth_control_151probes.cas
Reading "LaminarFlowControl_smooth_control_151probes.cas"...

Buffering for file scan...



    7412 quadrilateral cells, zone  1, binary.
Warning: reading 8 partition grid onto 1 compute node machine.
         Combining every 8 partitions.
    7412 cell partition ids, zone  1, 1 partitions, binary.
   14638 2D interior faces, zone  2, binary.
      72 2D wall faces, zone  3, binary.
       4 2D velocity-inlet faces, zone  4, binary.
       4 2D velocity-inlet faces, zone  5, binary.
      34 2D velocity-inlet faces, zone  6, binary.
     112 2D wall faces, zone  7, binary.
     112 2D wall faces, zone  8, binary.
      34 2D pressure-outlet faces, zone  9, binary.
    7598 nodes, binary.
7598 node flags, binary.

Warning: this is a single-precision solver.

Building...
     mesh
     materials,
     interface,
     domains,
	mixture
     zones,
	outlet
	top
	bottom
	cylinder-2
	default_interior-1
	inlet
	t1
	t2
	cylinder
     parallel,

Note: 2d, double precision, pressure-based, laminar, transient case read into
      2d, pressure-based, laminar, transient solver.



Done.

Reading "LaminarFlowControl_smooth_control_151probes.dat"...



Parallel variables...
Done.

> rc "LaminarFlowControl_smooth_control_151probes.cas"rd "LaminarFlowControl_smooth_control_151probes.dat"
Reading "LaminarFlowControl_smooth_control_151probes.dat"...



Parallel variables...
Done.
rc "LaminarFlowControl_smooth_control_151probes.cas"rd "LaminarFlowControl_smooth_control_151probes.dat"
Reading "LaminarFlowControl_smooth_control_151probes.dat"...



Warning: The time step size (0.001) in the session did not match the time step size in the data file (0.001), and has been overwritten by the value from the data file.

Parallel variables...
Done.
(set-parameter-data "starttimestep" "parameter-value" "value" 20340.000000)#f
(set-parameter-data "astart0" "parameter-value" "value" 0.000000)#f
(set-parameter-data "aend0" "parameter-value" "value" 0.000293)#f
(set-parameter-data "astart1" "parameter-value" "value" 0.000000)#f
(set-parameter-data "aend1" "parameter-value" "value" -0.000293)#f
(set-parameter-data "starttimestep" "parameter-value" "value" 20360.000000)#f
(set-parameter-data "astart0" "parameter-value" "value" 0.000293)#f
(set-parameter-data "aend0" "parameter-value" "value" 0.000238)#f
(set-parameter-data "astart1" "parameter-value" "value" -0.000293)#f
(set-parameter-data "aend1" "parameter-value" "value" -0.000238)#f
(set-parameter-data "starttimestep" "parameter-value" "value" 20380.000000)#f
(set-parameter-data "astart0" "parameter-value" "value" 0.000238)#f
(set-parameter-data "aend0" "parameter-value" "value" 0.000194)#f
(set-parameter-data "astart1" "parameter-value" "value" -0.000238)#f
(set-parameter-data "aend1" "parameter-value" "value" -0.000194)#f
(set-parameter-data "starttimestep" "parameter-value" "value" 20400.000000)#f
(set-parameter-data "astart0" "parameter-value" "value" 0.000194)#f
(set-parameter-data "aend0" "parameter-value" "value" 0.000155)#f
(set-parameter-data "astart1" "parameter-value" "value" -0.000194)#f
(set-parameter-data "aend1" "parameter-value" "value" -0.000155)#f
(set-parameter-data "starttimestep" "parameter-value" "value" 20420.000000)#f
(set-parameter-data "astart0" "parameter-value" "value" 0.000155)#f
(set-parameter-data "aend0" "parameter-value" "value" 0.000141)#f
(set-parameter-data "astart1" "parameter-value" "value" -0.000155)#f
(set-parameter-data "aend1" "parameter-value" "value" -0.000141)#f
(set-parameter-data "starttimestep" "parameter-value" "value" 20440.000000)#f
(set-parameter-data "astart0" "parameter-value" "value" 0.000141)#f
(set-parameter-data "aend0" "parameter-value" "value" 0.000223)#f
(set-parameter-data "astart1" "parameter-value" "value" -0.000141)#f
(set-parameter-data "aend1" "parameter-value" "value" -0.000223)#f
(set-parameter-data "starttimestep" "parameter-value" "value" 20460.000000)#f
(set-parameter-data "astart0" "parameter-value" "value" 0.000223)#f
(set-parameter-data "aend0" "parameter-value" "value" 0.000389)#f
(set-parameter-data "astart1" "parameter-value" "value" -0.000223)#f
(set-parameter-data "aend1" "parameter-value" "value" -0.000389)#f
(set-parameter-data "starttimestep" "parameter-value" "value" 20480.000000)#f
(set-parameter-data "astart0" "parameter-value" "value" 0.000389)#f
(set-parameter-data "aend0" "parameter-value" "value" 0.000529)#f
(set-parameter-data "astart1" "parameter-value" "value" -0.000389)#f
(set-parameter-data "aend1" "parameter-value" "value" -0.000529)#f
(set-parameter-data "starttimestep" "parameter-value" "value" 20500.000000)#f
(set-parameter-data "astart0" "parameter-value" "value" 0.000529)#f
(set-parameter-data "aend0" "parameter-value" "value" 0.000578)#f
(set-parameter-data "astart1" "parameter-value" "value" -0.000529)#f
(set-parameter-data "aend1" "parameter-value" "value" -0.000578)#f
(set-parameter-data "starttimestep" "parameter-value" "value" 20520.000000)#f
(set-parameter-data "astart0" "parameter-value" "value" 0.000578)#f
(set-parameter-data "aend0" "parameter-value" "value" 0.000582)#f
(set-parameter-data "astart1" "parameter-value" "value" -0.000578)#f
(set-parameter-data "aend1" "parameter-value" "value" -0.000582)#f
(set-parameter-data "starttimestep" "parameter-value" "value" 20540.000000)#f
(set-parameter-data "astart0" "parameter-value" "value" 0.000582)#f
(set-parameter-data "aend0" "parameter-value" "value" 0.000546)#f
(set-parameter-data "astart1" "parameter-value" "value" -0.000582)#f
(set-parameter-data "aend1" "parameter-value" "value" -0.000546)#f
(set-parameter-data "starttimestep" "parameter-value" "value" 20560.000000)#f
(set-parameter-data "astart0" "parameter-value" "value" 0.000546)#f
(set-parameter-data "aend0" "parameter-value" "value" 0.000575)#f
(set-parameter-data "astart1" "parameter-value" "value" -0.000546)#f
(set-parameter-data "aend1" "parameter-value" "value" -0.000575)#f
(set-parameter-data "starttimestep" "parameter-value" "value" 20580.000000)#f
(set-parameter-data "astart0" "parameter-value" "value" 0.000575)#f
(set-parameter-data "aend0" "parameter-value" "value" 0.000530)#f
(set-parameter-data "astart1" "parameter-value" "value" -0.000575)#f
(set-parameter-data "aend1" "parameter-value" "value" -0.000530)#f
(set-parameter-data "starttimestep" "parameter-value" "value" 20600.000000)#f
(set-parameter-data "astart0" "parameter-value" "value" 0.000530)#f
(set-parameter-data "aend0" "parameter-value" "value" 0.000467)#f
(set-parameter-data "astart1" "parameter-value" "value" -0.000530)#f
(set-parameter-data "aend1" "parameter-value" "value" -0.000467)#f
(set-parameter-data "starttimestep" "parameter-value" "value" 20620.000000)#f
(set-parameter-data "astart0" "parameter-value" "value" 0.000467)#f
(set-parameter-data "aend0" "parameter-value" "value" 0.000393)#f
(set-parameter-data "astart1" "parameter-value" "value" -0.000467)#f
(set-parameter-data "aend1" "parameter-value" "value" -0.000393)#f
(set-parameter-data "starttimestep" "parameter-value" "value" 20640.000000)#f
(set-parameter-data "astart0" "parameter-value" "value" 0.000393)#f
(set-parameter-data "aend0" "parameter-value" "value" 0.000315)#f
(set-parameter-data "astart1" "parameter-value" "value" -0.000393)#f
(set-parameter-data "aend1" "parameter-value" "value" -0.000315)#f
(set-parameter-data "starttimestep" "parameter-value" "value" 20660.000000)#f
(set-parameter-data "astart0" "parameter-value" "value" 0.000315)#f
(set-parameter-data "aend0" "parameter-value" "value" 0.000294)#f
(set-parameter-data "astart1" "parameter-value" "value" -0.000315)#f
(set-parameter-data "aend1" "parameter-value" "value" -0.000294)#f
(set-parameter-data "starttimestep" "parameter-value" "value" 20680.000000)#f
(set-parameter-data "astart0" "parameter-value" "value" 0.000294)#f
(set-parameter-data "aend0" "parameter-value" "value" 0.000272)#f
(set-parameter-data "astart1" "parameter-value" "value" -0.000294)#f
(set-parameter-data "aend1" "parameter-value" "value" -0.000272)#f
(set-parameter-data "starttimestep" "parameter-value" "value" 20700.000000)#f
(set-parameter-data "astart0" "parameter-value" "value" 0.000272)#f
(set-parameter-data "aend0" "parameter-value" "value" 0.000217)#f
(set-parameter-data "astart1" "parameter-value" "value" -0.000272)#f
(set-parameter-data "aend1" "parameter-value" "value" -0.000217)#f
(set-parameter-data "starttimestep" "parameter-value" "value" 20720.000000)#f
(set-parameter-data "astart0" "parameter-value" "value" 0.000217)#f
(set-parameter-data "aend0" "parameter-value" "value" 0.000188)#f
(set-parameter-data "astart1" "parameter-value" "value" -0.000217)#f
(set-parameter-data "aend1" "parameter-value" "value" -0.000188)#f
(set-parameter-data "starttimestep" "parameter-value" "value" 20740.000000)#f
(set-parameter-data "astart0" "parameter-value" "value" 0.000188)#f
(set-parameter-data "aend0" "parameter-value" "value" 0.000152)#f
(set-parameter-data "astart1" "parameter-value" "value" -0.000188)#f
(set-parameter-data "aend1" "parameter-value" "value" -0.000152)#f
(set-parameter-data "starttimestep" "parameter-value" "value" 20760.000000)#f
(set-parameter-data "astart0" "parameter-value" "value" 0.000152)#f
(set-parameter-data "aend0" "parameter-value" "value" 0.000169)#f
(set-parameter-data "astart1" "parameter-value" "value" -0.000152)#f
(set-parameter-data "aend1" "parameter-value" "value" -0.000169)#f
(set-parameter-data "starttimestep" "parameter-value" "value" 20780.000000)#f
(set-parameter-data "astart0" "parameter-value" "value" 0.000169)#f
(set-parameter-data "aend0" "parameter-value" "value" 0.000291)#f
(set-parameter-data "astart1" "parameter-value" "value" -0.000169)#f
(set-parameter-data "aend1" "parameter-value" "value" -0.000291)#f
(set-parameter-data "starttimestep" "parameter-value" "value" 20800.000000)#f
(set-parameter-data "astart0" "parameter-value" "value" 0.000291)#f
(set-parameter-data "aend0" "parameter-value" "value" 0.000448)#f
(set-parameter-data "astart1" "parameter-value" "value" -0.000291)#f
(set-parameter-data "aend1" "parameter-value" "value" -0.000448)#f
(set-parameter-data "starttimestep" "parameter-value" "value" 20820.000000)#f
(set-parameter-data "astart0" "parameter-value" "value" 0.000448)#f
(set-parameter-data "aend0" "parameter-value" "value" 0.000563)#f
(set-parameter-data "astart1" "parameter-value" "value" -0.000448)#f
(set-parameter-data "aend1" "parameter-value" "value" -0.000563)#f
(set-parameter-data "starttimestep" "parameter-value" "value" 20840.000000)#f
(set-parameter-data "astart0" "parameter-value" "value" 0.000563)#f
(set-parameter-data "aend0" "parameter-value" "value" 0.000582)#f
(set-parameter-data "astart1" "parameter-value" "value" -0.000563)#f
(set-parameter-data "aend1" "parameter-value" "value" -0.000582)#f
(set-parameter-data "starttimestep" "parameter-value" "value" 20860.000000)#f
(set-parameter-data "astart0" "parameter-value" "value" 0.000582)#f
(set-parameter-data "aend0" "parameter-value" "value" 0.000575)#f
(set-parameter-data "astart1" "parameter-value" "value" -0.000582)#f
(set-parameter-data "aend1" "parameter-value" "value" -0.000575)#f
(set-parameter-data "starttimestep" "parameter-value" "value" 20880.000000)#f
(set-parameter-data "astart0" "parameter-value" "value" 0.000575)#f
(set-parameter-data "aend0" "parameter-value" "value" 0.000547)#f
(set-parameter-data "astart1" "parameter-value" "value" -0.000575)#f
(set-parameter-data "aend1" "parameter-value" "value" -0.000547)#f
(set-parameter-data "starttimestep" "parameter-value" "value" 20900.000000)#f
(set-parameter-data "astart0" "parameter-value" "value" 0.000547)#f
(set-parameter-data "aend0" "parameter-value" "value" 0.000550)#f
(set-parameter-data "astart1" "parameter-value" "value" -0.000547)#f
(set-parameter-data "aend1" "parameter-value" "value" -0.000550)#f
(set-parameter-data "starttimestep" "parameter-value" "value" 20920.000000)#f
(set-parameter-data "astart0" "parameter-value" "value" 0.000550)#f
(set-parameter-data "aend0" "parameter-value" "value" 0.000498)#f
(set-parameter-data "astart1" "parameter-value" "value" -0.000550)#f
(set-parameter-data "aend1" "parameter-value" "value" -0.000498)#f
(set-parameter-data "starttimestep" "parameter-value" "value" 20940.000000)#f
(set-parameter-data "astart0" "parameter-value" "value" 0.000498)#f
(set-parameter-data "aend0" "parameter-value" "value" 0.000423)#f
(set-parameter-data "astart1" "parameter-value" "value" -0.000498)#f
(set-parameter-data "aend1" "parameter-value" "value" -0.000423)#f
(set-parameter-data "starttimestep" "parameter-value" "value" 20960.000000)#f
(set-parameter-data "astart0" "parameter-value" "value" 0.000423)#f
(set-parameter-data "aend0" "parameter-value" "value" 0.000353)#f
(set-parameter-data "astart1" "parameter-value" "value" -0.000423)#f
(set-parameter-data "aend1" "parameter-value" "value" -0.000353)#f
(set-parameter-data "starttimestep" "parameter-value" "value" 20980.000000)#f
(set-parameter-data "astart0" "parameter-value" "value" 0.000353)#f
(set-parameter-data "aend0" "parameter-value" "value" 0.000299)#f
(set-parameter-data "astart1" "parameter-value" "value" -0.000353)#f
(set-parameter-data "aend1" "parameter-value" "value" -0.000299)#f
(set-parameter-data "starttimestep" "parameter-value" "value" 21000.000000)#f
(set-parameter-data "astart0" "parameter-value" "value" 0.000299)#f
(set-parameter-data "aend0" "parameter-value" "value" 0.000300)#f
(set-parameter-data "astart1" "parameter-value" "value" -0.000299)#f
(set-parameter-data "aend1" "parameter-value" "value" -0.000300)#f
(set-parameter-data "starttimestep" "parameter-value" "value" 21020.000000)#f
(set-parameter-data "astart0" "parameter-value" "value" 0.000300)#f
(set-parameter-data "aend0" "parameter-value" "value" 0.000251)#f
(set-parameter-data "astart1" "parameter-value" "value" -0.000300)#f
(set-parameter-data "aend1" "parameter-value" "value" -0.000251)#f
(set-parameter-data "starttimestep" "parameter-value" "value" 21040.000000)#f
(set-parameter-data "astart0" "parameter-value" "value" 0.000251)#f
(set-parameter-data "aend0" "parameter-value" "value" 0.000204)#f
(set-parameter-data "astart1" "parameter-value" "value" -0.000251)#f
(set-parameter-data "aend1" "parameter-value" "value" -0.000204)#f
(set-parameter-data "starttimestep" "parameter-value" "value" 21060.000000)#f
(set-parameter-data "astart0" "parameter-value" "value" 0.000204)#f
(set-parameter-data "aend0" "parameter-value" "value" 0.000176)#f
(set-parameter-data "astart1" "parameter-value" "value" -0.000204)#f
(set-parameter-data "aend1" "parameter-value" "value" -0.000176)#f
(set-parameter-data "starttimestep" "parameter-value" "value" 21080.000000)#f
(set-parameter-data "astart0" "parameter-value" "value" 0.000176)#f
(set-parameter-data "aend0" "parameter-value" "value" 0.000152)#f
(set-parameter-data "astart1" "parameter-value" "value" -0.000176)#f
(set-parameter-data "aend1" "parameter-value" "value" -0.000152)#f
(set-parameter-data "starttimestep" "parameter-value" "value" 21100.000000)#f
(set-parameter-data "astart0" "parameter-value" "value" 0.000152)#f
(set-parameter-data "aend0" "parameter-value" "value" 0.000213)#f
(set-parameter-data "astart1" "parameter-value" "value" -0.000152)#f
(set-parameter-data "aend1" "parameter-value" "value" -0.000213)#f
(set-parameter-data "starttimestep" "parameter-value" "value" 21120.000000)#f
(set-parameter-data "astart0" "parameter-value" "value" 0.000213)#f
(set-parameter-data "aend0" "parameter-value" "value" 0.000364)#f
(set-parameter-data "astart1" "parameter-value" "value" -0.000213)#f
(set-parameter-data "aend1" "parameter-value" "value" -0.000364)#f
(set-parameter-data "starttimestep" "parameter-value" "value" 21140.000000)#f
(set-parameter-data "astart0" "parameter-value" "value" 0.000364)#f
(set-parameter-data "aend0" "parameter-value" "value" 0.000507)#f
(set-parameter-data "astart1" "parameter-value" "value" -0.000364)#f
(set-parameter-data "aend1" "parameter-value" "value" -0.000507)#f
(set-parameter-data "starttimestep" "parameter-value" "value" 21160.000000)#f
(set-parameter-data "astart0" "parameter-value" "value" 0.000507)#f
(set-parameter-data "aend0" "parameter-value" "value" 0.000579)#f
(set-parameter-data "astart1" "parameter-value" "value" -0.000507)#f
(set-parameter-data "aend1" "parameter-value" "value" -0.000579)#f
(set-parameter-data "starttimestep" "parameter-value" "value" 21180.000000)#f
(set-parameter-data "astart0" "parameter-value" "value" 0.000579)#f
(set-parameter-data "aend0" "parameter-value" "value" 0.000580)#f
(set-parameter-data "astart1" "parameter-value" "value" -0.000579)#f
(set-parameter-data "aend1" "parameter-value" "value" -0.000580)#f
(set-parameter-data "starttimestep" "parameter-value" "value" 21200.000000)#f
(set-parameter-data "astart0" "parameter-value" "value" 0.000580)#f
(set-parameter-data "aend0" "parameter-value" "value" 0.000552)#f
(set-parameter-data "astart1" "parameter-value" "value" -0.000580)#f
(set-parameter-data "aend1" "parameter-value" "value" -0.000552)#f
(set-parameter-data "starttimestep" "parameter-value" "value" 21220.000000)#f
(set-parameter-data "astart0" "parameter-value" "value" 0.000552)#f
(set-parameter-data "aend0" "parameter-value" "value" 0.000564)#f
(set-parameter-data "astart1" "parameter-value" "value" -0.000552)#f
(set-parameter-data "aend1" "parameter-value" "value" -0.000564)#f
(set-parameter-data "starttimestep" "parameter-value" "value" 21240.000000)#f
(set-parameter-data "astart0" "parameter-value" "value" 0.000564)#f
(set-parameter-data "aend0" "parameter-value" "value" 0.000524)#f
(set-parameter-data "astart1" "parameter-value" "value" -0.000564)#f
(set-parameter-data "aend1" "parameter-value" "value" -0.000524)#f
(set-parameter-data "starttimestep" "parameter-value" "value" 21260.000000)#f
(set-parameter-data "astart0" "parameter-value" "value" 0.000524)#f
(set-parameter-data "aend0" "parameter-value" "value" 0.000466)#f
(set-parameter-data "astart1" "parameter-value" "value" -0.000524)#f
(set-parameter-data "aend1" "parameter-value" "value" -0.000466)#f
(set-parameter-data "starttimestep" "parameter-value" "value" 21280.000000)#f
(set-parameter-data "astart0" "parameter-value" "value" 0.000466)#f
(set-parameter-data "aend0" "parameter-value" "value" 0.000396)#f
(set-parameter-data "astart1" "parameter-value" "value" -0.000466)#f
(set-parameter-data "aend1" "parameter-value" "value" -0.000396)#f
(set-parameter-data "starttimestep" "parameter-value" "value" 21300.000000)#f
(set-parameter-data "astart0" "parameter-value" "value" 0.000396)#f
(set-parameter-data "aend0" "parameter-value" "value" 0.000322)#f
(set-parameter-data "astart1" "parameter-value" "value" -0.000396)#f
(set-parameter-data "aend1" "parameter-value" "value" -0.000322)#f
(set-parameter-data "starttimestep" "parameter-value" "value" 21320.000000)#f
(set-parameter-data "astart0" "parameter-value" "value" 0.000322)#f
(set-parameter-data "aend0" "parameter-value" "value" 0.000298)#f
(set-parameter-data "astart1" "parameter-value" "value" -0.000322)#f
(set-parameter-data "aend1" "parameter-value" "value" -0.000298)#f
(set-parameter-data "starttimestep" "parameter-value" "value" 21340.000000)#f
(set-parameter-data "astart0" "parameter-value" "value" 0.000298)#f
(set-parameter-data "aend0" "parameter-value" "value" 0.000280)#f
(set-parameter-data "astart1" "parameter-value" "value" -0.000298)#f
(set-parameter-data "aend1" "parameter-value" "value" -0.000280)#f
(set-parameter-data "starttimestep" "parameter-value" "value" 21360.000000)#f
(set-parameter-data "astart0" "parameter-value" "value" 0.000280)#f
(set-parameter-data "aend0" "parameter-value" "value" 0.000229)#f
(set-parameter-data "astart1" "parameter-value" "value" -0.000280)#f
(set-parameter-data "aend1" "parameter-value" "value" -0.000229)#f
(set-parameter-data "starttimestep" "parameter-value" "value" 21380.000000)#f
(set-parameter-data "astart0" "parameter-value" "value" 0.000229)#f
(set-parameter-data "aend0" "parameter-value" "value" 0.000199)#f
(set-parameter-data "astart1" "parameter-value" "value" -0.000229)#f
(set-parameter-data "aend1" "parameter-value" "value" -0.000199)#f
(set-parameter-data "starttimestep" "parameter-value" "value" 21400.000000)#f
(set-parameter-data "astart0" "parameter-value" "value" 0.000199)#f
(set-parameter-data "aend0" "parameter-value" "value" 0.000160)#f
(set-parameter-data "astart1" "parameter-value" "value" -0.000199)#f
(set-parameter-data "aend1" "parameter-value" "value" -0.000160)#f
(set-parameter-data "starttimestep" "parameter-value" "value" 21420.000000)#f
(set-parameter-data "astart0" "parameter-value" "value" 0.000160)#f
(set-parameter-data "aend0" "parameter-value" "value" 0.000165)#f
(set-parameter-data "astart1" "parameter-value" "value" -0.000160)#f
(set-parameter-data "aend1" "parameter-value" "value" -0.000165)#f
(set-parameter-data "starttimestep" "parameter-value" "value" 21440.000000)#f
(set-parameter-data "astart0" "parameter-value" "value" 0.000165)#f
(set-parameter-data "aend0" "parameter-value" "value" 0.000274)#f
(set-parameter-data "astart1" "parameter-value" "value" -0.000165)#f
(set-parameter-data "aend1" "parameter-value" "value" -0.000274)#f
(set-parameter-data "starttimestep" "parameter-value" "value" 21460.000000)#f
(set-parameter-data "astart0" "parameter-value" "value" 0.000274)#f
(set-parameter-data "aend0" "parameter-value" "value" 0.000431)#f
(set-parameter-data "astart1" "parameter-value" "value" -0.000274)#f
(set-parameter-data "aend1" "parameter-value" "value" -0.000431)#f
(set-parameter-data "starttimestep" "parameter-value" "value" 21480.000000)#f
(set-parameter-data "astart0" "parameter-value" "value" 0.000431)#f
(set-parameter-data "aend0" "parameter-value" "value" 0.000552)#f
(set-parameter-data "astart1" "parameter-value" "value" -0.000431)#f
(set-parameter-data "aend1" "parameter-value" "value" -0.000552)#f
(set-parameter-data "starttimestep" "parameter-value" "value" 21500.000000)#f
(set-parameter-data "astart0" "parameter-value" "value" 0.000552)#f
(set-parameter-data "aend0" "parameter-value" "value" 0.000579)#f
(set-parameter-data "astart1" "parameter-value" "value" -0.000552)#f
(set-parameter-data "aend1" "parameter-value" "value" -0.000579)#f
(set-parameter-data "starttimestep" "parameter-value" "value" 21520.000000)#f
(set-parameter-data "astart0" "parameter-value" "value" 0.000579)#f
(set-parameter-data "aend0" "parameter-value" "value" 0.000576)#f
(set-parameter-data "astart1" "parameter-value" "value" -0.000579)#f
(set-parameter-data "aend1" "parameter-value" "value" -0.000576)#f
(set-parameter-data "starttimestep" "parameter-value" "value" 21540.000000)#f
(set-parameter-data "astart0" "parameter-value" "value" 0.000576)#f
(set-parameter-data "aend0" "parameter-value" "value" 0.000540)#f
(set-parameter-data "astart1" "parameter-value" "value" -0.000576)#f
(set-parameter-data "aend1" "parameter-value" "value" -0.000540)#f
(set-parameter-data "starttimestep" "parameter-value" "value" 21560.000000)#f
(set-parameter-data "astart0" "parameter-value" "value" 0.000540)#f
(set-parameter-data "aend0" "parameter-value" "value" 0.000556)#f
(set-parameter-data "astart1" "parameter-value" "value" -0.000540)#f
(set-parameter-data "aend1" "parameter-value" "value" -0.000556)#f
(set-parameter-data "starttimestep" "parameter-value" "value" 21580.000000)#f
(set-parameter-data "astart0" "parameter-value" "value" 0.000556)#f
(set-parameter-data "aend0" "parameter-value" "value" 0.000504)#f
(set-parameter-data "astart1" "parameter-value" "value" -0.000556)#f
(set-parameter-data "aend1" "parameter-value" "value" -0.000504)#f
(set-parameter-data "starttimestep" "parameter-value" "value" 21600.000000)#f
(set-parameter-data "astart0" "parameter-value" "value" 0.000504)#f
(set-parameter-data "aend0" "parameter-value" "value" 0.000430)#f
(set-parameter-data "astart1" "parameter-value" "value" -0.000504)#f
(set-parameter-data "aend1" "parameter-value" "value" -0.000430)#f
(set-parameter-data "starttimestep" "parameter-value" "value" 21620.000000)#f
(set-parameter-data "astart0" "parameter-value" "value" 0.000430)#f
(set-parameter-data "aend0" "parameter-value" "value" 0.000365)#f
(set-parameter-data "astart1" "parameter-value" "value" -0.000430)#f
(set-parameter-data "aend1" "parameter-value" "value" -0.000365)#f
(set-parameter-data "starttimestep" "parameter-value" "value" 21640.000000)#f
(set-parameter-data "astart0" "parameter-value" "value" 0.000365)#f
(set-parameter-data "aend0" "parameter-value" "value" 0.000304)#f
(set-parameter-data "astart1" "parameter-value" "value" -0.000365)#f
(set-parameter-data "aend1" "parameter-value" "value" -0.000304)#f
(set-parameter-data "starttimestep" "parameter-value" "value" 21660.000000)#f
(set-parameter-data "astart0" "parameter-value" "value" 0.000304)#f
(set-parameter-data "aend0" "parameter-value" "value" 0.000306)#f
(set-parameter-data "astart1" "parameter-value" "value" -0.000304)#f
(set-parameter-data "aend1" "parameter-value" "value" -0.000306)#f
(set-parameter-data "starttimestep" "parameter-value" "value" 21680.000000)#f
(set-parameter-data "astart0" "parameter-value" "value" 0.000306)#f
(set-parameter-data "aend0" "parameter-value" "value" 0.000261)#f
(set-parameter-data "astart1" "parameter-value" "value" -0.000306)#f
(set-parameter-data "aend1" "parameter-value" "value" -0.000261)#f
(set-parameter-data "starttimestep" "parameter-value" "value" 21700.000000)#f
(set-parameter-data "astart0" "parameter-value" "value" 0.000261)#f
(set-parameter-data "aend0" "parameter-value" "value" 0.000208)#f
(set-parameter-data "astart1" "parameter-value" "value" -0.000261)#f
(set-parameter-data "aend1" "parameter-value" "value" -0.000208)#f
(set-parameter-data "starttimestep" "parameter-value" "value" 21720.000000)#f
(set-parameter-data "astart0" "parameter-value" "value" 0.000208)#f
(set-parameter-data "aend0" "parameter-value" "value" 0.000184)#f
(set-parameter-data "astart1" "parameter-value" "value" -0.000208)#f
(set-parameter-data "aend1" "parameter-value" "value" -0.000184)#f
(set-parameter-data "starttimestep" "parameter-value" "value" 21740.000000)#f
(set-parameter-data "astart0" "parameter-value" "value" 0.000184)#f
(set-parameter-data "aend0" "parameter-value" "value" 0.000155)#f
(set-parameter-data "astart1" "parameter-value" "value" -0.000184)#f
(set-parameter-data "aend1" "parameter-value" "value" -0.000155)#f
(set-parameter-data "starttimestep" "parameter-value" "value" 21760.000000)#f
(set-parameter-data "astart0" "parameter-value" "value" 0.000155)#f
(set-parameter-data "aend0" "parameter-value" "value" 0.000202)#f
(set-parameter-data "astart1" "parameter-value" "value" -0.000155)#f
(set-parameter-data "aend1" "parameter-value" "value" -0.000202)#f
(set-parameter-data "starttimestep" "parameter-value" "value" 21780.000000)#f
(set-parameter-data "astart0" "parameter-value" "value" 0.000202)#f
(set-parameter-data "aend0" "parameter-value" "value" 0.000343)#f
(set-parameter-data "astart1" "parameter-value" "value" -0.000202)#f
(set-parameter-data "aend1" "parameter-value" "value" -0.000343)#f
(set-parameter-data "starttimestep" "parameter-value" "value" 21800.000000)#f
(set-parameter-data "astart0" "parameter-value" "value" 0.000343)#f
(set-parameter-data "aend0" "parameter-value" "value" 0.000489)#f
(set-parameter-data "astart1" "parameter-value" "value" -0.000343)#f
(set-parameter-data "aend1" "parameter-value" "value" -0.000489)#f
(set-parameter-data "starttimestep" "parameter-value" "value" 21820.000000)#f
(set-parameter-data "astart0" "parameter-value" "value" 0.000489)#f
(set-parameter-data "aend0" "parameter-value" "value" 0.000576)#f
(set-parameter-data "astart1" "parameter-value" "value" -0.000489)#f
(set-parameter-data "aend1" "parameter-value" "value" -0.000576)#f
(set-parameter-data "starttimestep" "parameter-value" "value" 21840.000000)#f
(set-parameter-data "astart0" "parameter-value" "value" 0.000576)#f
(set-parameter-data "aend0" "parameter-value" "value" 0.000579)#f
(set-parameter-data "astart1" "parameter-value" "value" -0.000576)#f
(set-parameter-data "aend1" "parameter-value" "value" -0.000579)#f
(set-parameter-data "starttimestep" "parameter-value" "value" 21860.000000)#f
(set-parameter-data "astart0" "parameter-value" "value" 0.000579)#f
(set-parameter-data "aend0" "parameter-value" "value" 0.000558)#f
(set-parameter-data "astart1" "parameter-value" "value" -0.000579)#f
(set-parameter-data "aend1" "parameter-value" "value" -0.000558)#f
(set-parameter-data "starttimestep" "parameter-value" "value" 21880.000000)#f
(set-parameter-data "astart0" "parameter-value" "value" 0.000558)#f
(set-parameter-data "aend0" "parameter-value" "value" 0.000556)#f
(set-parameter-data "astart1" "parameter-value" "value" -0.000558)#f
(set-parameter-data "aend1" "parameter-value" "value" -0.000556)#f
(set-parameter-data "starttimestep" "parameter-value" "value" 21900.000000)#f
(set-parameter-data "astart0" "parameter-value" "value" 0.000556)#f
(set-parameter-data "aend0" "parameter-value" "value" 0.000529)#f
(set-parameter-data "astart1" "parameter-value" "value" -0.000556)#f
(set-parameter-data "aend1" "parameter-value" "value" -0.000529)#f
(set-parameter-data "starttimestep" "parameter-value" "value" 21920.000000)#f
(set-parameter-data "astart0" "parameter-value" "value" 0.000529)#f
(set-parameter-data "aend0" "parameter-value" "value" 0.000475)#f
(set-parameter-data "astart1" "parameter-value" "value" -0.000529)#f
(set-parameter-data "aend1" "parameter-value" "value" -0.000475)#f
(set-parameter-data "starttimestep" "parameter-value" "value" 21940.000000)#f
(set-parameter-data "astart0" "parameter-value" "value" 0.000475)#f
(set-parameter-data "aend0" "parameter-value" "value" 0.000403)#f
(set-parameter-data "astart1" "parameter-value" "value" -0.000475)#f
(set-parameter-data "aend1" "parameter-value" "value" -0.000403)#f
(set-parameter-data "starttimestep" "parameter-value" "value" 21960.000000)#f
(set-parameter-data "astart0" "parameter-value" "value" 0.000403)#f
(set-parameter-data "aend0" "parameter-value" "value" 0.000330)#f
(set-parameter-data "astart1" "parameter-value" "value" -0.000403)#f
(set-parameter-data "aend1" "parameter-value" "value" -0.000330)#f
(set-parameter-data "starttimestep" "parameter-value" "value" 21980.000000)#f
(set-parameter-data "astart0" "parameter-value" "value" 0.000330)#f
(set-parameter-data "aend0" "parameter-value" "value" 0.000297)#f
(set-parameter-data "astart1" "parameter-value" "value" -0.000330)#f
(set-parameter-data "aend1" "parameter-value" "value" -0.000297)#f
(set-parameter-data "starttimestep" "parameter-value" "value" 22000.000000)#f
(set-parameter-data "astart0" "parameter-value" "value" 0.000297)#f
(set-parameter-data "aend0" "parameter-value" "value" 0.000289)#f
(set-parameter-data "astart1" "parameter-value" "value" -0.000297)#f
(set-parameter-data "aend1" "parameter-value" "value" -0.000289)#f
(set-parameter-data "starttimestep" "parameter-value" "value" 22020.000000)#f
(set-parameter-data "astart0" "parameter-value" "value" 0.000289)#f
(set-parameter-data "aend0" "parameter-value" "value" 0.000239)#f
(set-parameter-data "astart1" "parameter-value" "value" -0.000289)#f
(set-parameter-data "aend1" "parameter-value" "value" -0.000239)#f
(set-parameter-data "starttimestep" "parameter-value" "value" 22040.000000)#f
(set-parameter-data "astart0" "parameter-value" "value" 0.000239)#f
(set-parameter-data "aend0" "parameter-value" "value" 0.000205)#f
(set-parameter-data "astart1" "parameter-value" "value" -0.000239)#f
(set-parameter-data "aend1" "parameter-value" "value" -0.000205)#f
(set-parameter-data "starttimestep" "parameter-value" "value" 22060.000000)#f
(set-parameter-data "astart0" "parameter-value" "value" 0.000205)#f
(set-parameter-data "aend0" "parameter-value" "value" 0.000167)#f
(set-parameter-data "astart1" "parameter-value" "value" -0.000205)#f
(set-parameter-data "aend1" "parameter-value" "value" -0.000167)#f
(set-parameter-data "starttimestep" "parameter-value" "value" 22080.000000)#f
(set-parameter-data "astart0" "parameter-value" "value" 0.000167)#f
(set-parameter-data "aend0" "parameter-value" "value" 0.000159)#f
(set-parameter-data "astart1" "parameter-value" "value" -0.000167)#f
(set-parameter-data "aend1" "parameter-value" "value" -0.000159)#f
(set-parameter-data "starttimestep" "parameter-value" "value" 22100.000000)#f
(set-parameter-data "astart0" "parameter-value" "value" 0.000159)#f
(set-parameter-data "aend0" "parameter-value" "value" 0.000253)#f
(set-parameter-data "astart1" "parameter-value" "value" -0.000159)#f
(set-parameter-data "aend1" "parameter-value" "value" -0.000253)#f
(set-parameter-data "starttimestep" "parameter-value" "value" 22120.000000)#f
(set-parameter-data "astart0" "parameter-value" "value" 0.000253)#f
(set-parameter-data "aend0" "parameter-value" "value" 0.000410)#f
(set-parameter-data "astart1" "parameter-value" "value" -0.000253)#f
(set-parameter-data "aend1" "parameter-value" "value" -0.000410)#f
(set-parameter-data "starttimestep" "parameter-value" "value" 22140.000000)#f
(set-parameter-data "astart0" "parameter-value" "value" 0.000410)#f
(set-parameter-data "aend0" "parameter-value" "value" 0.000541)#f
(set-parameter-data "astart1" "parameter-value" "value" -0.000410)#f
(set-parameter-data "aend1" "parameter-value" "value" -0.000541)#f
(set-parameter-data "starttimestep" "parameter-value" "value" 22160.000000)#f
(set-parameter-data "astart0" "parameter-value" "value" 0.000541)#f
(set-parameter-data "aend0" "parameter-value" "value" 0.000580)#f
(set-parameter-data "astart1" "parameter-value" "value" -0.000541)#f
(set-parameter-data "aend1" "parameter-value" "value" -0.000580)#f
(set-parameter-data "starttimestep" "parameter-value" "value" 22180.000000)#f
(set-parameter-data "astart0" "parameter-value" "value" 0.000580)#f
(set-parameter-data "aend0" "parameter-value" "value" 0.000579)#f
(set-parameter-data "astart1" "parameter-value" "value" -0.000580)#f
(set-parameter-data "aend1" "parameter-value" "value" -0.000579)#f
(set-parameter-data "starttimestep" "parameter-value" "value" 22200.000000)#f
(set-parameter-data "astart0" "parameter-value" "value" 0.000579)#f
(set-parameter-data "aend0" "parameter-value" "value" 0.000538)#f
(set-parameter-data "astart1" "parameter-value" "value" -0.000579)#f
(set-parameter-data "aend1" "parameter-value" "value" -0.000538)#f
(set-parameter-data "starttimestep" "parameter-value" "value" 22220.000000)#f
(set-parameter-data "astart0" "parameter-value" "value" 0.000538)#f
(set-parameter-data "aend0" "parameter-value" "value" 0.000561)#f
(set-parameter-data "astart1" "parameter-value" "value" -0.000538)#f
(set-parameter-data "aend1" "parameter-value" "value" -0.000561)#f
(set-parameter-data "starttimestep" "parameter-value" "value" 22240.000000)#f
(set-parameter-data "astart0" "parameter-value" "value" 0.000561)#f
(set-parameter-data "aend0" "parameter-value" "value" 0.000511)#f
(set-parameter-data "astart1" "parameter-value" "value" -0.000561)#f
(set-parameter-data "aend1" "parameter-value" "value" -0.000511)#f
(set-parameter-data "starttimestep" "parameter-value" "value" 22260.000000)#f
(set-parameter-data "astart0" "parameter-value" "value" 0.000511)#f
(set-parameter-data "aend0" "parameter-value" "value" 0.000441)#f
(set-parameter-data "astart1" "parameter-value" "value" -0.000511)#f
(set-parameter-data "aend1" "parameter-value" "value" -0.000441)#f
(set-parameter-data "starttimestep" "parameter-value" "value" 22280.000000)#f
(set-parameter-data "astart0" "parameter-value" "value" 0.000441)#f
(set-parameter-data "aend0" "parameter-value" "value" 0.000376)#f
(set-parameter-data "astart1" "parameter-value" "value" -0.000441)#f
(set-parameter-data "aend1" "parameter-value" "value" -0.000376)#f
(set-parameter-data "starttimestep" "parameter-value" "value" 22300.000000)#f
(set-parameter-data "astart0" "parameter-value" "value" 0.000376)#f
(set-parameter-data "aend0" "parameter-value" "value" 0.000309)#f
(set-parameter-data "astart1" "parameter-value" "value" -0.000376)#f
(set-parameter-data "aend1" "parameter-value" "value" -0.000309)#f
(set-parameter-data "starttimestep" "parameter-value" "value" 22320.000000)#f
(set-parameter-data "astart0" "parameter-value" "value" 0.000309)#f
(set-parameter-data "aend0" "parameter-value" "value" 0.000307)#f
(set-parameter-data "astart1" "parameter-value" "value" -0.000309)#f
(set-parameter-data "aend1" "parameter-value" "value" -0.000307)#f
rc "LaminarFlowControl_smooth_control_151probes.cas"rd "LaminarFlowControl_smooth_control_151probes.dat"(set-parameter-data "starttimestep" "parameter-value" "value" 22340.000000)#f
(set-parameter-data "astart0" "parameter-value" "value" 0.000000)#f
(set-parameter-data "aend0" "parameter-value" "value" 0.000266)#f
(set-parameter-data "astart1" "parameter-value" "value" 0.000000)#f
(set-parameter-data "aend1" "parameter-value" "value" -0.000266)#f
(set-parameter-data "starttimestep" "parameter-value" "value" 22360.000000)#f
(set-parameter-data "astart0" "parameter-value" "value" 0.000266)#f
(set-parameter-data "aend0" "parameter-value" "value" 0.000214)#f
(set-parameter-data "astart1" "parameter-value" "value" -0.000266)#f
(set-parameter-data "aend1" "parameter-value" "value" -0.000214)#f
(set-parameter-data "starttimestep" "parameter-value" "value" 22380.000000)#f
(set-parameter-data "astart0" "parameter-value" "value" 0.000214)#f
(set-parameter-data "aend0" "parameter-value" "value" 0.000190)#f
(set-parameter-data "astart1" "parameter-value" "value" -0.000214)#f
(set-parameter-data "aend1" "parameter-value" "value" -0.000190)#f
(set-parameter-data "starttimestep" "parameter-value" "value" 22400.000000)#f
(set-parameter-data "astart0" "parameter-value" "value" 0.000190)#f
(set-parameter-data "aend0" "parameter-value" "value" 0.000157)#f
(set-parameter-data "astart1" "parameter-value" "value" -0.000190)#f
(set-parameter-data "aend1" "parameter-value" "value" -0.000157)#f
(set-parameter-data "starttimestep" "parameter-value" "value" 22420.000000)#f
(set-parameter-data "astart0" "parameter-value" "value" 0.000157)#f
(set-parameter-data "aend0" "parameter-value" "value" 0.000190)#f
(set-parameter-data "astart1" "parameter-value" "value" -0.000157)#f
(set-parameter-data "aend1" "parameter-value" "value" -0.000190)#f
(set-parameter-data "starttimestep" "parameter-value" "value" 22440.000000)#f
(set-parameter-data "astart0" "parameter-value" "value" 0.000190)#f
(set-parameter-data "aend0" "parameter-value" "value" 0.000322)#f
(set-parameter-data "astart1" "parameter-value" "value" -0.000190)#f
(set-parameter-data "aend1" "parameter-value" "value" -0.000322)#f
(set-parameter-data "starttimestep" "parameter-value" "value" 22460.000000)#f
(set-parameter-data "astart0" "parameter-value" "value" 0.000322)#f
(set-parameter-data "aend0" "parameter-value" "value" 0.000471)#f
(set-parameter-data "astart1" "parameter-value" "value" -0.000322)#f
(set-parameter-data "aend1" "parameter-value" "value" -0.000471)#f
(set-parameter-data "starttimestep" "parameter-value" "value" 22480.000000)#f
(set-parameter-data "astart0" "parameter-value" "value" 0.000471)#f
(set-parameter-data "aend0" "parameter-value" "value" 0.000571)#f
(set-parameter-data "astart1" "parameter-value" "value" -0.000471)#f
(set-parameter-data "aend1" "parameter-value" "value" -0.000571)#f
(set-parameter-data "starttimestep" "parameter-value" "value" 22500.000000)#f
(set-parameter-data "astart0" "parameter-value" "value" 0.000571)#f
(set-parameter-data "aend0" "parameter-value" "value" 0.000579)#f
(set-parameter-data "astart1" "parameter-value" "value" -0.000571)#f
(set-parameter-data "aend1" "parameter-value" "value" -0.000579)#f
(set-parameter-data "starttimestep" "parameter-value" "value" 22520.000000)#f
(set-parameter-data "astart0" "parameter-value" "value" 0.000579)#f
(set-parameter-data "aend0" "parameter-value" "value" 0.000564)#f
(set-parameter-data "astart1" "parameter-value" "value" -0.000579)#f
(set-parameter-data "aend1" "parameter-value" "value" -0.000564)#f
(set-parameter-data "starttimestep" "parameter-value" "value" 22540.000000)#f
(set-parameter-data "astart0" "parameter-value" "value" 0.000564)#f
(set-parameter-data "aend0" "parameter-value" "value" 0.000549)#f
(set-parameter-data "astart1" "parameter-value" "value" -0.000564)#f
(set-parameter-data "aend1" "parameter-value" "value" -0.000549)#f
(set-parameter-data "starttimestep" "parameter-value" "value" 22560.000000)#f
(set-parameter-data "astart0" "parameter-value" "value" 0.000549)#f
(set-parameter-data "aend0" "parameter-value" "value" 0.000635)#f
(set-parameter-data "astart1" "parameter-value" "value" -0.000549)#f
(set-parameter-data "aend1" "parameter-value" "value" -0.000635)#f
(set-parameter-data "starttimestep" "parameter-value" "value" 22580.000000)#f
(set-parameter-data "astart0" "parameter-value" "value" 0.000635)#f
(set-parameter-data "aend0" "parameter-value" "value" 0.000471)#f
(set-parameter-data "astart1" "parameter-value" "value" -0.000635)#f
(set-parameter-data "aend1" "parameter-value" "value" -0.000471)#f
(set-parameter-data "starttimestep" "parameter-value" "value" 22600.000000)#f
(set-parameter-data "astart0" "parameter-value" "value" 0.000471)#f
(set-parameter-data "aend0" "parameter-value" "value" 0.000316)#f
(set-parameter-data "astart1" "parameter-value" "value" -0.000471)#f
(set-parameter-data "aend1" "parameter-value" "value" -0.000316)#f
(set-parameter-data "starttimestep" "parameter-value" "value" 22620.000000)#f
(set-parameter-data "astart0" "parameter-value" "value" 0.000316)#f
(set-parameter-data "aend0" "parameter-value" "value" 0.000200)#f
(set-parameter-data "astart1" "parameter-value" "value" -0.000316)#f
(set-parameter-data "aend1" "parameter-value" "value" -0.000200)#f
(set-parameter-data "starttimestep" "parameter-value" "value" 22640.000000)#f
(set-parameter-data "astart0" "parameter-value" "value" 0.000200)#f
(set-parameter-data "aend0" "parameter-value" "value" 0.000110)#f
(set-parameter-data "astart1" "parameter-value" "value" -0.000200)#f
(set-parameter-data "aend1" "parameter-value" "value" -0.000110)#f
(set-parameter-data "starttimestep" "parameter-value" "value" 22660.000000)#f
(set-parameter-data "astart0" "parameter-value" "value" 0.000110)#f
(set-parameter-data "aend0" "parameter-value" "value" 0.000050)#f
(set-parameter-data "astart1" "parameter-value" "value" -0.000110)#f
(set-parameter-data "aend1" "parameter-value" "value" -0.000050)#f
(set-parameter-data "starttimestep" "parameter-value" "value" 22680.000000)#f
(set-parameter-data "astart0" "parameter-value" "value" 0.000050)#f
(set-parameter-data "aend0" "parameter-value" "value" 0.000046)#f
(set-parameter-data "astart1" "parameter-value" "value" -0.000050)#f
(set-parameter-data "aend1" "parameter-value" "value" -0.000046)#f
(set-parameter-data "starttimestep" "parameter-value" "value" 22700.000000)#f
(set-parameter-data "astart0" "parameter-value" "value" 0.000046)#f
(set-parameter-data "aend0" "parameter-value" "value" 0.000098)#f
(set-parameter-data "astart1" "parameter-value" "value" -0.000046)#f
(set-parameter-data "aend1" "parameter-value" "value" -0.000098)#f
(set-parameter-data "starttimestep" "parameter-value" "value" 22720.000000)#f
(set-parameter-data "astart0" "parameter-value" "value" 0.000098)#f
(set-parameter-data "aend0" "parameter-value" "value" 0.000221)#f
(set-parameter-data "astart1" "parameter-value" "value" -0.000098)#f
(set-parameter-data "aend1" "parameter-value" "value" -0.000221)#f
(set-parameter-data "starttimestep" "parameter-value" "value" 22740.000000)#f
(set-parameter-data "astart0" "parameter-value" "value" 0.000221)#f
(set-parameter-data "aend0" "parameter-value" "value" 0.000359)#f
(set-parameter-data "astart1" "parameter-value" "value" -0.000221)#f
(set-parameter-data "aend1" "parameter-value" "value" -0.000359)#f
(set-parameter-data "starttimestep" "parameter-value" "value" 22760.000000)#f
(set-parameter-data "astart0" "parameter-value" "value" 0.000359)#f
(set-parameter-data "aend0" "parameter-value" "value" 0.000496)#f
(set-parameter-data "astart1" "parameter-value" "value" -0.000359)#f
(set-parameter-data "aend1" "parameter-value" "value" -0.000496)#f
(set-parameter-data "starttimestep" "parameter-value" "value" 22780.000000)#f
(set-parameter-data "astart0" "parameter-value" "value" 0.000496)#f
(set-parameter-data "aend0" "parameter-value" "value" 0.000643)#f
(set-parameter-data "astart1" "parameter-value" "value" -0.000496)#f
(set-parameter-data "aend1" "parameter-value" "value" -0.000643)#f
(set-parameter-data "starttimestep" "parameter-value" "value" 22800.000000)#f
(set-parameter-data "astart0" "parameter-value" "value" 0.000643)#f
(set-parameter-data "aend0" "parameter-value" "value" 0.000769)#f
(set-parameter-data "astart1" "parameter-value" "value" -0.000643)#f
(set-parameter-data "aend1" "parameter-value" "value" -0.000769)#f
(set-parameter-data "starttimestep" "parameter-value" "value" 22820.000000)#f
(set-parameter-data "astart0" "parameter-value" "value" 0.000769)#f
(set-parameter-data "aend0" "parameter-value" "value" 0.000843)#f
(set-parameter-data "astart1" "parameter-value" "value" -0.000769)#f
(set-parameter-data "aend1" "parameter-value" "value" -0.000843)#f
(set-parameter-data "starttimestep" "parameter-value" "value" 22840.000000)#f
(set-parameter-data "astart0" "parameter-value" "value" 0.000843)#f
(set-parameter-data "aend0" "parameter-value" "value" 0.000849)#f
(set-parameter-data "astart1" "parameter-value" "value" -0.000843)#f
(set-parameter-data "aend1" "parameter-value" "value" -0.000849)#f
(set-parameter-data "starttimestep" "parameter-value" "value" 22860.000000)#f
(set-parameter-data "astart0" "parameter-value" "value" 0.000849)#f
(set-parameter-data "aend0" "parameter-value" "value" 0.000811)#f
(set-parameter-data "astart1" "parameter-value" "value" -0.000849)#f
(set-parameter-data "aend1" "parameter-value" "value" -0.000811)#f
(set-parameter-data "starttimestep" "parameter-value" "value" 22880.000000)#f
(set-parameter-data "astart0" "parameter-value" "value" 0.000811)#f
(set-parameter-data "aend0" "parameter-value" "value" 0.000714)#f
(set-parameter-data "astart1" "parameter-value" "value" -0.000811)#f
(set-parameter-data "aend1" "parameter-value" "value" -0.000714)#f
(set-parameter-data "starttimestep" "parameter-value" "value" 22900.000000)#f
(set-parameter-data "astart0" "parameter-value" "value" 0.000714)#f
(set-parameter-data "aend0" "parameter-value" "value" 0.000567)#f
(set-parameter-data "astart1" "parameter-value" "value" -0.000714)#f
(set-parameter-data "aend1" "parameter-value" "value" -0.000567)#f
(set-parameter-data "starttimestep" "parameter-value" "value" 22920.000000)#f
(set-parameter-data "astart0" "parameter-value" "value" 0.000567)#f
(set-parameter-data "aend0" "parameter-value" "value" 0.000405)#f
(set-parameter-data "astart1" "parameter-value" "value" -0.000567)#f
(set-parameter-data "aend1" "parameter-value" "value" -0.000405)#f
(set-parameter-data "starttimestep" "parameter-value" "value" 22940.000000)#f
(set-parameter-data "astart0" "parameter-value" "value" 0.000405)#f
(set-parameter-data "aend0" "parameter-value" "value" 0.000267)#f
(set-parameter-data "astart1" "parameter-value" "value" -0.000405)#f
(set-parameter-data "aend1" "parameter-value" "value" -0.000267)#f
(set-parameter-data "starttimestep" "parameter-value" "value" 22960.000000)#f
(set-parameter-data "astart0" "parameter-value" "value" 0.000267)#f
(set-parameter-data "aend0" "parameter-value" "value" 0.000166)#f
(set-parameter-data "astart1" "parameter-value" "value" -0.000267)#f
(set-parameter-data "aend1" "parameter-value" "value" -0.000166)#f
(set-parameter-data "starttimestep" "parameter-value" "value" 22980.000000)#f
(set-parameter-data "astart0" "parameter-value" "value" 0.000166)#f
(set-parameter-data "aend0" "parameter-value" "value" 0.000095)#f
(set-parameter-data "astart1" "parameter-value" "value" -0.000166)#f
(set-parameter-data "aend1" "parameter-value" "value" -0.000095)#f
(set-parameter-data "starttimestep" "parameter-value" "value" 23000.000000)#f
(set-parameter-data "astart0" "parameter-value" "value" 0.000095)#f
(set-parameter-data "aend0" "parameter-value" "value" 0.000049)#f
(set-parameter-data "astart1" "parameter-value" "value" -0.000095)#f
(set-parameter-data "aend1" "parameter-value" "value" -0.000049)#f
(set-parameter-data "starttimestep" "parameter-value" "value" 23020.000000)#f
(set-parameter-data "astart0" "parameter-value" "value" 0.000049)#f
(set-parameter-data "aend0" "parameter-value" "value" 0.000071)#f
(set-parameter-data "astart1" "parameter-value" "value" -0.000049)#f
(set-parameter-data "aend1" "parameter-value" "value" -0.000071)#f
(set-parameter-data "starttimestep" "parameter-value" "value" 23040.000000)#f
(set-parameter-data "astart0" "parameter-value" "value" 0.000071)#f
(set-parameter-data "aend0" "parameter-value" "value" 0.000144)#f
(set-parameter-data "astart1" "parameter-value" "value" -0.000071)#f
(set-parameter-data "aend1" "parameter-value" "value" -0.000144)#f
(set-parameter-data "starttimestep" "parameter-value" "value" 23060.000000)#f
(set-parameter-data "astart0" "parameter-value" "value" 0.000144)#f
(set-parameter-data "aend0" "parameter-value" "value" 0.000285)#f
(set-parameter-data "astart1" "parameter-value" "value" -0.000144)#f
(set-parameter-data "aend1" "parameter-value" "value" -0.000285)#f
(set-parameter-data "starttimestep" "parameter-value" "value" 23080.000000)#f
(set-parameter-data "astart0" "parameter-value" "value" 0.000285)#f
(set-parameter-data "aend0" "parameter-value" "value" 0.000414)#f
(set-parameter-data "astart1" "parameter-value" "value" -0.000285)#f
(set-parameter-data "aend1" "parameter-value" "value" -0.000414)#f
(set-parameter-data "starttimestep" "parameter-value" "value" 23100.000000)#f
(set-parameter-data "astart0" "parameter-value" "value" 0.000414)#f
(set-parameter-data "aend0" "parameter-value" "value" 0.000549)#f
(set-parameter-data "astart1" "parameter-value" "value" -0.000414)#f
(set-parameter-data "aend1" "parameter-value" "value" -0.000549)#f
(set-parameter-data "starttimestep" "parameter-value" "value" 23120.000000)#f
(set-parameter-data "astart0" "parameter-value" "value" 0.000549)#f
(set-parameter-data "aend0" "parameter-value" "value" 0.000691)#f
(set-parameter-data "astart1" "parameter-value" "value" -0.000549)#f
(set-parameter-data "aend1" "parameter-value" "value" -0.000691)#f
(set-parameter-data "starttimestep" "parameter-value" "value" 23140.000000)#f
(set-parameter-data "astart0" "parameter-value" "value" 0.000691)#f
(set-parameter-data "aend0" "parameter-value" "value" 0.000797)#f
(set-parameter-data "astart1" "parameter-value" "value" -0.000691)#f
(set-parameter-data "aend1" "parameter-value" "value" -0.000797)#f
(set-parameter-data "starttimestep" "parameter-value" "value" 23160.000000)#f
(set-parameter-data "astart0" "parameter-value" "value" 0.000797)#f
(set-parameter-data "aend0" "parameter-value" "value" 0.000841)#f
(set-parameter-data "astart1" "parameter-value" "value" -0.000797)#f
(set-parameter-data "aend1" "parameter-value" "value" -0.000841)#f
(set-parameter-data "starttimestep" "parameter-value" "value" 23180.000000)#f
(set-parameter-data "astart0" "parameter-value" "value" 0.000841)#f
(set-parameter-data "aend0" "parameter-value" "value" 0.000825)#f
(set-parameter-data "astart1" "parameter-value" "value" -0.000841)#f
(set-parameter-data "aend1" "parameter-value" "value" -0.000825)#f
(set-parameter-data "starttimestep" "parameter-value" "value" 23200.000000)#f
(set-parameter-data "astart0" "parameter-value" "value" 0.000825)#f
(set-parameter-data "aend0" "parameter-value" "value" 0.000772)#f
(set-parameter-data "astart1" "parameter-value" "value" -0.000825)#f
(set-parameter-data "aend1" "parameter-value" "value" -0.000772)#f
(set-parameter-data "starttimestep" "parameter-value" "value" 23220.000000)#f
(set-parameter-data "astart0" "parameter-value" "value" 0.000772)#f
(set-parameter-data "aend0" "parameter-value" "value" 0.000658)#f
(set-parameter-data "astart1" "parameter-value" "value" -0.000772)#f
(set-parameter-data "aend1" "parameter-value" "value" -0.000658)#f
(set-parameter-data "starttimestep" "parameter-value" "value" 23240.000000)#f
(set-parameter-data "astart0" "parameter-value" "value" 0.000658)#f
(set-parameter-data "aend0" "parameter-value" "value" 0.000506)#f
(set-parameter-data "astart1" "parameter-value" "value" -0.000658)#f
(set-parameter-data "aend1" "parameter-value" "value" -0.000506)#f
(set-parameter-data "starttimestep" "parameter-value" "value" 23260.000000)#f
(set-parameter-data "astart0" "parameter-value" "value" 0.000506)#f
(set-parameter-data "aend0" "parameter-value" "value" 0.000349)#f
(set-parameter-data "astart1" "parameter-value" "value" -0.000506)#f
(set-parameter-data "aend1" "parameter-value" "value" -0.000349)#f
(set-parameter-data "starttimestep" "parameter-value" "value" 23280.000000)#f
(set-parameter-data "astart0" "parameter-value" "value" 0.000349)#f
(set-parameter-data "aend0" "parameter-value" "value" 0.000231)#f
(set-parameter-data "astart1" "parameter-value" "value" -0.000349)#f
(set-parameter-data "aend1" "parameter-value" "value" -0.000231)#f
(set-parameter-data "starttimestep" "parameter-value" "value" 23300.000000)#f
(set-parameter-data "astart0" "parameter-value" "value" 0.000231)#f
(set-parameter-data "aend0" "parameter-value" "value" 0.000138)#f
(set-parameter-data "astart1" "parameter-value" "value" -0.000231)#f
(set-parameter-data "aend1" "parameter-value" "value" -0.000138)#f
(set-parameter-data "starttimestep" "parameter-value" "value" 23320.000000)#f
(set-parameter-data "astart0" "parameter-value" "value" 0.000138)#f
(set-parameter-data "aend0" "parameter-value" "value" 0.000077)#f
(set-parameter-data "astart1" "parameter-value" "value" -0.000138)#f
(set-parameter-data "aend1" "parameter-value" "value" -0.000077)#f
(set-parameter-data "starttimestep" "parameter-value" "value" 23340.000000)#f
(set-parameter-data "astart0" "parameter-value" "value" 0.000077)#f
(set-parameter-data "aend0" "parameter-value" "value" 0.000054)#f
(set-parameter-data "astart1" "parameter-value" "value" -0.000077)#f
(set-parameter-data "aend1" "parameter-value" "value" -0.000054)#f
(set-parameter-data "starttimestep" "parameter-value" "value" 23360.000000)#f
(set-parameter-data "astart0" "parameter-value" "value" 0.000054)#f
(set-parameter-data "aend0" "parameter-value" "value" 0.000092)#f
(set-parameter-data "astart1" "parameter-value" "value" -0.000054)#f
(set-parameter-data "aend1" "parameter-value" "value" -0.000092)#f
(set-parameter-data "starttimestep" "parameter-value" "value" 23380.000000)#f
(set-parameter-data "astart0" "parameter-value" "value" 0.000092)#f
(set-parameter-data "aend0" "parameter-value" "value" 0.000190)#f
(set-parameter-data "astart1" "parameter-value" "value" -0.000092)#f
(set-parameter-data "aend1" "parameter-value" "value" -0.000190)#f
(set-parameter-data "starttimestep" "parameter-value" "value" 23400.000000)#f
(set-parameter-data "astart0" "parameter-value" "value" 0.000190)#f
(set-parameter-data "aend0" "parameter-value" "value" 0.000331)#f
(set-parameter-data "astart1" "parameter-value" "value" -0.000190)#f
(set-parameter-data "aend1" "parameter-value" "value" -0.000331)#f
(set-parameter-data "starttimestep" "parameter-value" "value" 23420.000000)#f
(set-parameter-data "astart0" "parameter-value" "value" 0.000331)#f
(set-parameter-data "aend0" "parameter-value" "value" 0.000460)#f
(set-parameter-data "astart1" "parameter-value" "value" -0.000331)#f
(set-parameter-data "aend1" "parameter-value" "value" -0.000460)#f
(set-parameter-data "starttimestep" "parameter-value" "value" 23440.000000)#f
(set-parameter-data "astart0" "parameter-value" "value" 0.000460)#f
(set-parameter-data "aend0" "parameter-value" "value" 0.000597)#f
(set-parameter-data "astart1" "parameter-value" "value" -0.000460)#f
(set-parameter-data "aend1" "parameter-value" "value" -0.000597)#f
(set-parameter-data "starttimestep" "parameter-value" "value" 23460.000000)#f
(set-parameter-data "astart0" "parameter-value" "value" 0.000597)#f
(set-parameter-data "aend0" "parameter-value" "value" 0.000727)#f
(set-parameter-data "astart1" "parameter-value" "value" -0.000597)#f
(set-parameter-data "aend1" "parameter-value" "value" -0.000727)#f
(set-parameter-data "starttimestep" "parameter-value" "value" 23480.000000)#f
(set-parameter-data "astart0" "parameter-value" "value" 0.000727)#f
(set-parameter-data "aend0" "parameter-value" "value" 0.000817)#f
(set-parameter-data "astart1" "parameter-value" "value" -0.000727)#f
(set-parameter-data "aend1" "parameter-value" "value" -0.000817)#f
(set-parameter-data "starttimestep" "parameter-value" "value" 23500.000000)#f
(set-parameter-data "astart0" "parameter-value" "value" 0.000817)#f
(set-parameter-data "aend0" "parameter-value" "value" 0.000838)#f
(set-parameter-data "astart1" "parameter-value" "value" -0.000817)#f
(set-parameter-data "aend1" "parameter-value" "value" -0.000838)#f
(set-parameter-data "starttimestep" "parameter-value" "value" 23520.000000)#f
(set-parameter-data "astart0" "parameter-value" "value" 0.000838)#f
(set-parameter-data "aend0" "parameter-value" "value" 0.000806)#f
(set-parameter-data "astart1" "parameter-value" "value" -0.000838)#f
(set-parameter-data "aend1" "parameter-value" "value" -0.000806)#f
(set-parameter-data "starttimestep" "parameter-value" "value" 23540.000000)#f
(set-parameter-data "astart0" "parameter-value" "value" 0.000806)#f
(set-parameter-data "aend0" "parameter-value" "value" 0.000735)#f
(set-parameter-data "astart1" "parameter-value" "value" -0.000806)#f
(set-parameter-data "aend1" "parameter-value" "value" -0.000735)#f
(set-parameter-data "starttimestep" "parameter-value" "value" 23560.000000)#f
(set-parameter-data "astart0" "parameter-value" "value" 0.000735)#f
(set-parameter-data "aend0" "parameter-value" "value" 0.000606)#f
(set-parameter-data "astart1" "parameter-value" "value" -0.000735)#f
(set-parameter-data "aend1" "parameter-value" "value" -0.000606)#f
(set-parameter-data "starttimestep" "parameter-value" "value" 23580.000000)#f
(set-parameter-data "astart0" "parameter-value" "value" 0.000606)#f
(set-parameter-data "aend0" "parameter-value" "value" 0.000452)#f
(set-parameter-data "astart1" "parameter-value" "value" -0.000606)#f
(set-parameter-data "aend1" "parameter-value" "value" -0.000452)#f
(set-parameter-data "starttimestep" "parameter-value" "value" 23600.000000)#f
(set-parameter-data "astart0" "parameter-value" "value" 0.000452)#f
(set-parameter-data "aend0" "parameter-value" "value" 0.000305)#f
(set-parameter-data "astart1" "parameter-value" "value" -0.000452)#f
(set-parameter-data "aend1" "parameter-value" "value" -0.000305)#f
(set-parameter-data "starttimestep" "parameter-value" "value" 23620.000000)#f
(set-parameter-data "astart0" "parameter-value" "value" 0.000305)#f
(set-parameter-data "aend0" "parameter-value" "value" 0.000199)#f
(set-parameter-data "astart1" "parameter-value" "value" -0.000305)#f
(set-parameter-data "aend1" "parameter-value" "value" -0.000199)#f
(set-parameter-data "starttimestep" "parameter-value" "value" 23640.000000)#f
(set-parameter-data "astart0" "parameter-value" "value" 0.000199)#f
(set-parameter-data "aend0" "parameter-value" "value" 0.000116)#f
(set-parameter-data "astart1" "parameter-value" "value" -0.000199)#f
(set-parameter-data "aend1" "parameter-value" "value" -0.000116)#f
(set-parameter-data "starttimestep" "parameter-value" "value" 23660.000000)#f
(set-parameter-data "astart0" "parameter-value" "value" 0.000116)#f
(set-parameter-data "aend0" "parameter-value" "value" 0.000061)#f
(set-parameter-data "astart1" "parameter-value" "value" -0.000116)#f
(set-parameter-data "aend1" "parameter-value" "value" -0.000061)#f
(set-parameter-data "starttimestep" "parameter-value" "value" 23680.000000)#f
(set-parameter-data "astart0" "parameter-value" "value" 0.000061)#f
(set-parameter-data "aend0" "parameter-value" "value" 0.000062)#f
(set-parameter-data "astart1" "parameter-value" "value" -0.000061)#f
(set-parameter-data "aend1" "parameter-value" "value" -0.000062)#f
(set-parameter-data "starttimestep" "parameter-value" "value" 23700.000000)#f
(set-parameter-data "astart0" "parameter-value" "value" 0.000062)#f
(set-parameter-data "aend0" "parameter-value" "value" 0.000115)#f
(set-parameter-data "astart1" "parameter-value" "value" -0.000062)#f
(set-parameter-data "aend1" "parameter-value" "value" -0.000115)#f
(set-parameter-data "starttimestep" "parameter-value" "value" 23720.000000)#f
(set-parameter-data "astart0" "parameter-value" "value" 0.000115)#f
(set-parameter-data "aend0" "parameter-value" "value" 0.000238)#f
(set-parameter-data "astart1" "parameter-value" "value" -0.000115)#f
(set-parameter-data "aend1" "parameter-value" "value" -0.000238)#f
(set-parameter-data "starttimestep" "parameter-value" "value" 23740.000000)#f
(set-parameter-data "astart0" "parameter-value" "value" 0.000238)#f
(set-parameter-data "aend0" "parameter-value" "value" 0.000370)#f
(set-parameter-data "astart1" "parameter-value" "value" -0.000238)#f
(set-parameter-data "aend1" "parameter-value" "value" -0.000370)#f
(set-parameter-data "starttimestep" "parameter-value" "value" 23760.000000)#f
(set-parameter-data "astart0" "parameter-value" "value" 0.000370)#f
(set-parameter-data "aend0" "parameter-value" "value" 0.000502)#f
(set-parameter-data "astart1" "parameter-value" "value" -0.000370)#f
(set-parameter-data "aend1" "parameter-value" "value" -0.000502)#f
(set-parameter-data "starttimestep" "parameter-value" "value" 23780.000000)#f
(set-parameter-data "astart0" "parameter-value" "value" 0.000502)#f
(set-parameter-data "aend0" "parameter-value" "value" 0.000641)#f
(set-parameter-data "astart1" "parameter-value" "value" -0.000502)#f
(set-parameter-data "aend1" "parameter-value" "value" -0.000641)#f
(set-parameter-data "starttimestep" "parameter-value" "value" 23800.000000)#f
(set-parameter-data "astart0" "parameter-value" "value" 0.000641)#f
(set-parameter-data "aend0" "parameter-value" "value" 0.000758)#f
(set-parameter-data "astart1" "parameter-value" "value" -0.000641)#f
(set-parameter-data "aend1" "parameter-value" "value" -0.000758)#f
(set-parameter-data "starttimestep" "parameter-value" "value" 23820.000000)#f
(set-parameter-data "astart0" "parameter-value" "value" 0.000758)#f
(set-parameter-data "aend0" "parameter-value" "value" 0.000829)#f
(set-parameter-data "astart1" "parameter-value" "value" -0.000758)#f
(set-parameter-data "aend1" "parameter-value" "value" -0.000829)#f
(set-parameter-data "starttimestep" "parameter-value" "value" 23840.000000)#f
(set-parameter-data "astart0" "parameter-value" "value" 0.000829)#f
(set-parameter-data "aend0" "parameter-value" "value" 0.000829)#f
(set-parameter-data "astart1" "parameter-value" "value" -0.000829)#f
(set-parameter-data "aend1" "parameter-value" "value" -0.000829)#f
(set-parameter-data "starttimestep" "parameter-value" "value" 23860.000000)#f
(set-parameter-data "astart0" "parameter-value" "value" 0.000829)#f
(set-parameter-data "aend0" "parameter-value" "value" 0.000788)#f
(set-parameter-data "astart1" "parameter-value" "value" -0.000829)#f
(set-parameter-data "aend1" "parameter-value" "value" -0.000788)#f
(set-parameter-data "starttimestep" "parameter-value" "value" 23880.000000)#f
(set-parameter-data "astart0" "parameter-value" "value" 0.000788)#f
(set-parameter-data "aend0" "parameter-value" "value" 0.000699)#f
(set-parameter-data "astart1" "parameter-value" "value" -0.000788)#f
(set-parameter-data "aend1" "parameter-value" "value" -0.000699)#f
(set-parameter-data "starttimestep" "parameter-value" "value" 23900.000000)#f
(set-parameter-data "astart0" "parameter-value" "value" 0.000699)#f
(set-parameter-data "aend0" "parameter-value" "value" 0.000558)#f
(set-parameter-data "astart1" "parameter-value" "value" -0.000699)#f
(set-parameter-data "aend1" "parameter-value" "value" -0.000558)#f
(set-parameter-data "starttimestep" "parameter-value" "value" 23920.000000)#f
(set-parameter-data "astart0" "parameter-value" "value" 0.000558)#f
(set-parameter-data "aend0" "parameter-value" "value" 0.000401)#f
(set-parameter-data "astart1" "parameter-value" "value" -0.000558)#f
(set-parameter-data "aend1" "parameter-value" "value" -0.000401)#f
(set-parameter-data "starttimestep" "parameter-value" "value" 23940.000000)#f
(set-parameter-data "astart0" "parameter-value" "value" 0.000401)#f
(set-parameter-data "aend0" "parameter-value" "value" 0.000267)#f
(set-parameter-data "astart1" "parameter-value" "value" -0.000401)#f
(set-parameter-data "aend1" "parameter-value" "value" -0.000267)#f
(set-parameter-data "starttimestep" "parameter-value" "value" 23960.000000)#f
(set-parameter-data "astart0" "parameter-value" "value" 0.000267)#f
(set-parameter-data "aend0" "parameter-value" "value" 0.000167)#f
(set-parameter-data "astart1" "parameter-value" "value" -0.000267)#f
(set-parameter-data "aend1" "parameter-value" "value" -0.000167)#f
(set-parameter-data "starttimestep" "parameter-value" "value" 23980.000000)#f
(set-parameter-data "astart0" "parameter-value" "value" 0.000167)#f
(set-parameter-data "aend0" "parameter-value" "value" 0.000099)#f
(set-parameter-data "astart1" "parameter-value" "value" -0.000167)#f
(set-parameter-data "aend1" "parameter-value" "value" -0.000099)#f
(set-parameter-data "starttimestep" "parameter-value" "value" 24000.000000)#f
(set-parameter-data "astart0" "parameter-value" "value" 0.000099)#f
(set-parameter-data "aend0" "parameter-value" "value" 0.000053)#f
(set-parameter-data "astart1" "parameter-value" "value" -0.000099)#f
(set-parameter-data "aend1" "parameter-value" "value" -0.000053)#f
(set-parameter-data "starttimestep" "parameter-value" "value" 24020.000000)#f
(set-parameter-data "astart0" "parameter-value" "value" 0.000053)#f
(set-parameter-data "aend0" "parameter-value" "value" 0.000074)#f
(set-parameter-data "astart1" "parameter-value" "value" -0.000053)#f
(set-parameter-data "aend1" "parameter-value" "value" -0.000074)#f
(set-parameter-data "starttimestep" "parameter-value" "value" 24040.000000)#f
(set-parameter-data "astart0" "parameter-value" "value" 0.000074)#f
(set-parameter-data "aend0" "parameter-value" "value" 0.000145)#f
(set-parameter-data "astart1" "parameter-value" "value" -0.000074)#f
(set-parameter-data "aend1" "parameter-value" "value" -0.000145)#f
(set-parameter-data "starttimestep" "parameter-value" "value" 24060.000000)#f
(set-parameter-data "astart0" "parameter-value" "value" 0.000145)#f
(set-parameter-data "aend0" "parameter-value" "value" 0.000283)#f
(set-parameter-data "astart1" "parameter-value" "value" -0.000145)#f
(set-parameter-data "aend1" "parameter-value" "value" -0.000283)#f
(set-parameter-data "starttimestep" "parameter-value" "value" 24080.000000)#f
(set-parameter-data "astart0" "parameter-value" "value" 0.000283)#f
(set-parameter-data "aend0" "parameter-value" "value" 0.000411)#f
(set-parameter-data "astart1" "parameter-value" "value" -0.000283)#f
(set-parameter-data "aend1" "parameter-value" "value" -0.000411)#f
(set-parameter-data "starttimestep" "parameter-value" "value" 24100.000000)#f
(set-parameter-data "astart0" "parameter-value" "value" 0.000411)#f
(set-parameter-data "aend0" "parameter-value" "value" 0.000544)#f
(set-parameter-data "astart1" "parameter-value" "value" -0.000411)#f
(set-parameter-data "aend1" "parameter-value" "value" -0.000544)#f
(set-parameter-data "starttimestep" "parameter-value" "value" 24120.000000)#f
(set-parameter-data "astart0" "parameter-value" "value" 0.000544)#f
(set-parameter-data "aend0" "parameter-value" "value" 0.000681)#f
(set-parameter-data "astart1" "parameter-value" "value" -0.000544)#f
(set-parameter-data "aend1" "parameter-value" "value" -0.000681)#f
(set-parameter-data "starttimestep" "parameter-value" "value" 24140.000000)#f
(set-parameter-data "astart0" "parameter-value" "value" 0.000681)#f
(set-parameter-data "aend0" "parameter-value" "value" 0.000787)#f
(set-parameter-data "astart1" "parameter-value" "value" -0.000681)#f
(set-parameter-data "aend1" "parameter-value" "value" -0.000787)#f
(set-parameter-data "starttimestep" "parameter-value" "value" 24160.000000)#f
(set-parameter-data "astart0" "parameter-value" "value" 0.000787)#f
(set-parameter-data "aend0" "parameter-value" "value" 0.000834)#f
(set-parameter-data "astart1" "parameter-value" "value" -0.000787)#f
(set-parameter-data "aend1" "parameter-value" "value" -0.000834)#f
(set-parameter-data "starttimestep" "parameter-value" "value" 24180.000000)#f
(set-parameter-data "astart0" "parameter-value" "value" 0.000834)#f
(set-parameter-data "aend0" "parameter-value" "value" 0.000818)#f
(set-parameter-data "astart1" "parameter-value" "value" -0.000834)#f
(set-parameter-data "aend1" "parameter-value" "value" -0.000818)#f
(set-parameter-data "starttimestep" "parameter-value" "value" 24200.000000)#f
(set-parameter-data "astart0" "parameter-value" "value" 0.000818)#f
(set-parameter-data "aend0" "parameter-value" "value" 0.000767)#f
(set-parameter-data "astart1" "parameter-value" "value" -0.000818)#f
(set-parameter-data "aend1" "parameter-value" "value" -0.000767)#f
(set-parameter-data "starttimestep" "parameter-value" "value" 24220.000000)#f
(set-parameter-data "astart0" "parameter-value" "value" 0.000767)#f
(set-parameter-data "aend0" "parameter-value" "value" 0.000659)#f
(set-parameter-data "astart1" "parameter-value" "value" -0.000767)#f
(set-parameter-data "aend1" "parameter-value" "value" -0.000659)#f
(set-parameter-data "starttimestep" "parameter-value" "value" 24240.000000)#f
(set-parameter-data "astart0" "parameter-value" "value" 0.000659)#f
(set-parameter-data "aend0" "parameter-value" "value" 0.000510)#f
(set-parameter-data "astart1" "parameter-value" "value" -0.000659)#f
(set-parameter-data "aend1" "parameter-value" "value" -0.000510)#f
(set-parameter-data "starttimestep" "parameter-value" "value" 24260.000000)#f
(set-parameter-data "astart0" "parameter-value" "value" 0.000510)#f
(set-parameter-data "aend0" "parameter-value" "value" 0.000355)#f
(set-parameter-data "astart1" "parameter-value" "value" -0.000510)#f
(set-parameter-data "aend1" "parameter-value" "value" -0.000355)#f
(set-parameter-data "starttimestep" "parameter-value" "value" 24280.000000)#f
(set-parameter-data "astart0" "parameter-value" "value" 0.000355)#f
(set-parameter-data "aend0" "parameter-value" "value" 0.000234)#f
(set-parameter-data "astart1" "parameter-value" "value" -0.000355)#f
(set-parameter-data "aend1" "parameter-value" "value" -0.000234)#f
(set-parameter-data "starttimestep" "parameter-value" "value" 24300.000000)#f
(set-parameter-data "astart0" "parameter-value" "value" 0.000234)#f
(set-parameter-data "aend0" "parameter-value" "value" 0.000142)#f
(set-parameter-data "astart1" "parameter-value" "value" -0.000234)#f
(set-parameter-data "aend1" "parameter-value" "value" -0.000142)#f
(set-parameter-data "starttimestep" "parameter-value" "value" 24320.000000)#f
(set-parameter-data "astart0" "parameter-value" "value" 0.000142)#f
(set-parameter-data "aend0" "parameter-value" "value" 0.000081)#f
(set-parameter-data "astart1" "parameter-value" "value" -0.000142)#f
(set-parameter-data "aend1" "parameter-value" "value" -0.000081)#f
rc "LaminarFlowControl_smooth_control_151probes.cas"rd "LaminarFlowControl_smooth_control_151probes.dat"(set-parameter-data "starttimestep" "parameter-value" "value" 24340.000000)#f
(set-parameter-data "astart0" "parameter-value" "value" 0.000000)#f
(set-parameter-data "aend0" "parameter-value" "value" 0.000053)#f
(set-parameter-data "astart1" "parameter-value" "value" 0.000000)#f
(set-parameter-data "aend1" "parameter-value" "value" -0.000053)#f
(set-parameter-data "starttimestep" "parameter-value" "value" 24360.000000)#f
(set-parameter-data "astart0" "parameter-value" "value" 0.000053)#f
(set-parameter-data "aend0" "parameter-value" "value" 0.000090)#f
(set-parameter-data "astart1" "parameter-value" "value" -0.000053)#f
(set-parameter-data "aend1" "parameter-value" "value" -0.000090)#f
(set-parameter-data "starttimestep" "parameter-value" "value" 24380.000000)#f
(set-parameter-data "astart0" "parameter-value" "value" 0.000090)#f
(set-parameter-data "aend0" "parameter-value" "value" 0.000183)#f
(set-parameter-data "astart1" "parameter-value" "value" -0.000090)#f
(set-parameter-data "aend1" "parameter-value" "value" -0.000183)#f
(set-parameter-data "starttimestep" "parameter-value" "value" 24400.000000)#f
[...]
(set-parameter-data "astart1" "parameter-value" "value" 0.000400)#f
(set-parameter-data "aend1" "parameter-value" "value" 0.000212)#f
(set-parameter-data "starttimestep" "parameter-value" "value" 38840.000000)#f
(set-parameter-data "astart0" "parameter-value" "value" -0.000212)#f
(set-parameter-data "aend0" "parameter-value" "value" 0.000056)#f
(set-parameter-data "astart1" "parameter-value" "value" 0.000212)#f
(set-parameter-data "aend1" "parameter-value" "value" -0.000056)#f
(set-parameter-data "starttimestep" "parameter-value" "value" 38860.000000)#f
(set-parameter-data "astart0" "parameter-value" "value" 0.000056)#f
(set-parameter-data "aend0" "parameter-value" "value" 0.000377)#f
(set-parameter-data "astart1" "parameter-value" "value" -0.000056)#f
(set-parameter-data "aend1" "parameter-value" "value" -0.000377)#f
(set-parameter-data "starttimestep" "parameter-value" "value" 38880.000000)#f
(set-parameter-data "astart0" "parameter-value" "value" 0.000377)#f
(set-parameter-data "aend0" "parameter-value" "value" 0.000712)#f
(set-parameter-data "astart1" "parameter-value" "value" -0.000377)#f
(set-parameter-data "aend1" "parameter-value" "value" -0.000712)#f
(set-parameter-data "starttimestep" "parameter-value" "value" 38900.000000)#f
(set-parameter-data "astart0" "parameter-value" "value" 0.000712)#f
(set-parameter-data "aend0" "parameter-value" "value" 0.001013)#f
(set-parameter-data "astart1" "parameter-value" "value" -0.000712)#f
(set-parameter-data "aend1" "parameter-value" "value" -0.001013)#f
(set-parameter-data "starttimestep" "parameter-value" "value" 38920.000000)#f
(set-parameter-data "astart0" "parameter-value" "value" 0.001013)#f
(set-parameter-data "aend0" "parameter-value" "value" 0.001245)#f
(set-parameter-data "astart1" "parameter-value" "value" -0.001013)#f
(set-parameter-data "aend1" "parameter-value" "value" -0.001245)#f
(set-parameter-data "starttimestep" "parameter-value" "value" 38940.000000)#f
(set-parameter-data "astart0" "parameter-value" "value" 0.001245)#f
(set-parameter-data "aend0" "parameter-value" "value" 0.001394)#f
(set-parameter-data "astart1" "parameter-value" "value" -0.001245)#f
(set-parameter-data "aend1" "parameter-value" "value" -0.001394)#f
(set-parameter-data "starttimestep" "parameter-value" "value" 38960.000000)#f
(set-parameter-data "astart0" "parameter-value" "value" 0.001394)#f
(set-parameter-data "aend0" "parameter-value" "value" 0.001453)#f
(set-parameter-data "astart1" "parameter-value" "value" -0.001394)#f
(set-parameter-data "aend1" "parameter-value" "value" -0.001453)#f
(set-parameter-data "starttimestep" "parameter-value" "value" 38980.000000)#f
(set-parameter-data "astart0" "parameter-value" "value" 0.001453)#f
(set-parameter-data "aend0" "parameter-value" "value" 0.001417)#f
(set-parameter-data "astart1" "parameter-value" "value" -0.001453)#f
(set-parameter-data "aend1" "parameter-value" "value" -0.001417)#f
(set-parameter-data "starttimestep" "parameter-value" "value" 39000.000000)#f
(set-parameter-data "astart0" "parameter-value" "value" 0.001417)#f
(set-parameter-data "aend0" "parameter-value" "value" 0.001282)#f
(set-parameter-data "astart1" "parameter-value" "value" -0.001417)#f
(set-parameter-data "aend1" "parameter-value" "value" -0.001282)#f
(set-parameter-data "starttimestep" "parameter-value" "value" 39020.000000)#f
(set-parameter-data "astart0" "parameter-value" "value" 0.001282)#f
(set-parameter-data "aend0" "parameter-value" "value" 0.001042)#f
(set-parameter-data "astart1" "parameter-value" "value" -0.001282)#f
(set-parameter-data "aend1" "parameter-value" "value" -0.001042)#f
(set-parameter-data "starttimestep" "parameter-value" "value" 39040.000000)#f
(set-parameter-data "astart0" "parameter-value" "value" 0.001042)#f
(set-parameter-data "aend0" "parameter-value" "value" 0.000749)#f
(set-parameter-data "astart1" "parameter-value" "value" -0.001042)#f
(set-parameter-data "aend1" "parameter-value" "value" -0.000749)#f
(set-parameter-data "starttimestep" "parameter-value" "value" 39060.000000)#f
(set-parameter-data "astart0" "parameter-value" "value" 0.000749)#f
(set-parameter-data "aend0" "parameter-value" "value" 0.000441)#f
(set-parameter-data "astart1" "parameter-value" "value" -0.000749)#f
(set-parameter-data "aend1" "parameter-value" "value" -0.000441)#f
(set-parameter-data "starttimestep" "parameter-value" "value" 39080.000000)#f
(set-parameter-data "astart0" "parameter-value" "value" 0.000441)#f
(set-parameter-data "aend0" "parameter-value" "value" 0.000144)#f
(set-parameter-data "astart1" "parameter-value" "value" -0.000441)#f
(set-parameter-data "aend1" "parameter-value" "value" -0.000144)#f
(set-parameter-data "starttimestep" "parameter-value" "value" 39100.000000)#f
(set-parameter-data "astart0" "parameter-value" "value" 0.000144)#f
(set-parameter-data "aend0" "parameter-value" "value" -0.000117)#f
(set-parameter-data "astart1" "parameter-value" "value" -0.000144)#f
(set-parameter-data "aend1" "parameter-value" "value" 0.000117)#f
(set-parameter-data "starttimestep" "parameter-value" "value" 39120.000000)#f
(set-parameter-data "astart0" "parameter-value" "value" -0.000117)#f
(set-parameter-data "aend0" "parameter-value" "value" -0.000316)#f
(set-parameter-data "astart1" "parameter-value" "value" 0.000117)#f
(set-parameter-data "aend1" "parameter-value" "value" 0.000316)#f
(set-parameter-data "starttimestep" "parameter-value" "value" 39140.000000)#f
(set-parameter-data "astart0" "parameter-value" "value" -0.000316)#f
(set-parameter-data "aend0" "parameter-value" "value" -0.000440)#f
(set-parameter-data "astart1" "parameter-value" "value" 0.000316)#f
(set-parameter-data "aend1" "parameter-value" "value" 0.000440)#f
(set-parameter-data "starttimestep" "parameter-value" "value" 39160.000000)#f
(set-parameter-data "astart0" "parameter-value" "value" -0.000440)#f
(set-parameter-data "aend0" "parameter-value" "value" -0.000480)#f
(set-parameter-data "astart1" "parameter-value" "value" 0.000440)#f
(set-parameter-data "aend1" "parameter-value" "value" 0.000480)#f
(set-parameter-data "starttimestep" "parameter-value" "value" 39180.000000)#f
(set-parameter-data "astart0" "parameter-value" "value" -0.000480)#f
(set-parameter-data "aend0" "parameter-value" "value" -0.000418)#f
(set-parameter-data "astart1" "parameter-value" "value" 0.000480)#f
(set-parameter-data "aend1" "parameter-value" "value" 0.000418)#f
(set-parameter-data "starttimestep" "parameter-value" "value" 39200.000000)#f
(set-parameter-data "astart0" "parameter-value" "value" -0.000418)#f
(set-parameter-data "aend0" "parameter-value" "value" -0.000245)#f
(set-parameter-data "astart1" "parameter-value" "value" 0.000418)#f
(set-parameter-data "aend1" "parameter-value" "value" 0.000245)#f
(set-parameter-data "starttimestep" "parameter-value" "value" 39220.000000)#f
(set-parameter-data "astart0" "parameter-value" "value" -0.000245)#f
(set-parameter-data "aend0" "parameter-value" "value" 0.000012)#f
(set-parameter-data "astart1" "parameter-value" "value" 0.000245)#f
(set-parameter-data "aend1" "parameter-value" "value" -0.000012)#f
(set-parameter-data "starttimestep" "parameter-value" "value" 39240.000000)#f
(set-parameter-data "astart0" "parameter-value" "value" 0.000012)#f
(set-parameter-data "aend0" "parameter-value" "value" 0.000322)#f
(set-parameter-data "astart1" "parameter-value" "value" -0.000012)#f
(set-parameter-data "aend1" "parameter-value" "value" -0.000322)#f
(set-parameter-data "starttimestep" "parameter-value" "value" 39260.000000)#f
(set-parameter-data "astart0" "parameter-value" "value" 0.000322)#f
(set-parameter-data "aend0" "parameter-value" "value" 0.000652)#f
(set-parameter-data "astart1" "parameter-value" "value" -0.000322)#f
(set-parameter-data "aend1" "parameter-value" "value" -0.000652)#f
(set-parameter-data "starttimestep" "parameter-value" "value" 39280.000000)#f
(set-parameter-data "astart0" "parameter-value" "value" 0.000652)#f
(set-parameter-data "aend0" "parameter-value" "value" 0.000959)#f
(set-parameter-data "astart1" "parameter-value" "value" -0.000652)#f
(set-parameter-data "aend1" "parameter-value" "value" -0.000959)#f
(set-parameter-data "starttimestep" "parameter-value" "value" 39300.000000)#f
(set-parameter-data "astart0" "parameter-value" "value" 0.000959)#f
(set-parameter-data "aend0" "parameter-value" "value" 0.001201)#f
(set-parameter-data "astart1" "parameter-value" "value" -0.000959)#f
(set-parameter-data "aend1" "parameter-value" "value" -0.001201)#f
(set-parameter-data "starttimestep" "parameter-value" "value" 39320.000000)#f
(set-parameter-data "astart0" "parameter-value" "value" 0.001201)#f
(set-parameter-data "aend0" "parameter-value" "value" 0.001363)#f
(set-parameter-data "astart1" "parameter-value" "value" -0.001201)#f
(set-parameter-data "aend1" "parameter-value" "value" -0.001363)#f
(set-parameter-data "starttimestep" "parameter-value" "value" 39340.000000)#f
(set-parameter-data "astart0" "parameter-value" "value" 0.001363)#f
(set-parameter-data "aend0" "parameter-value" "value" 0.001440)#f
(set-parameter-data "astart1" "parameter-value" "value" -0.001363)#f
(set-parameter-data "aend1" "parameter-value" "value" -0.001440)#f
(set-parameter-data "starttimestep" "parameter-value" "value" 39360.000000)#f
(set-parameter-data "astart0" "parameter-value" "value" 0.001440)#f
(set-parameter-data "aend0" "parameter-value" "value" 0.001426)#f
(set-parameter-data "astart1" "parameter-value" "value" -0.001440)#f
(set-parameter-data "aend1" "parameter-value" "value" -0.001426)#f
(set-parameter-data "starttimestep" "parameter-value" "value" 39380.000000)#f
(set-parameter-data "astart0" "parameter-value" "value" 0.001426)#f
(set-parameter-data "aend0" "parameter-value" "value" 0.001315)#f
(set-parameter-data "astart1" "parameter-value" "value" -0.001426)#f
(set-parameter-data "aend1" "parameter-value" "value" -0.001315)#f
(set-parameter-data "starttimestep" "parameter-value" "value" 39400.000000)#f
(set-parameter-data "astart0" "parameter-value" "value" 0.001315)#f
(set-parameter-data "aend0" "parameter-value" "value" 0.001097)#f
(set-parameter-data "astart1" "parameter-value" "value" -0.001315)#f
(set-parameter-data "aend1" "parameter-value" "value" -0.001097)#f
(set-parameter-data "starttimestep" "parameter-value" "value" 39420.000000)#f
(set-parameter-data "astart0" "parameter-value" "value" 0.001097)#f
(set-parameter-data "aend0" "parameter-value" "value" 0.000817)#f
(set-parameter-data "astart1" "parameter-value" "value" -0.001097)#f
(set-parameter-data "aend1" "parameter-value" "value" -0.000817)#f
(set-parameter-data "starttimestep" "parameter-value" "value" 39440.000000)#f
(set-parameter-data "astart0" "parameter-value" "value" 0.000817)#f
(set-parameter-data "aend0" "parameter-value" "value" 0.000676)#f
(set-parameter-data "astart1" "parameter-value" "value" -0.000817)#f
(set-parameter-data "aend1" "parameter-value" "value" -0.000676)#f
(set-parameter-data "starttimestep" "parameter-value" "value" 39460.000000)#f
(set-parameter-data "astart0" "parameter-value" "value" 0.000676)#f
(set-parameter-data "aend0" "parameter-value" "value" 0.000346)#f
(set-parameter-data "astart1" "parameter-value" "value" -0.000676)#f
(set-parameter-data "aend1" "parameter-value" "value" -0.000346)#f
(set-parameter-data "starttimestep" "parameter-value" "value" 39480.000000)#f
(set-parameter-data "astart0" "parameter-value" "value" 0.000346)#f
(set-parameter-data "aend0" "parameter-value" "value" 0.000052)#f
(set-parameter-data "astart1" "parameter-value" "value" -0.000346)#f
(set-parameter-data "aend1" "parameter-value" "value" -0.000052)#f
(set-parameter-data "starttimestep" "parameter-value" "value" 39500.000000)#f
(set-parameter-data "astart0" "parameter-value" "value" 0.000052)#f
(set-parameter-data "aend0" "parameter-value" "value" -0.000181)#f
(set-parameter-data "astart1" "parameter-value" "value" -0.000052)#f
(set-parameter-data "aend1" "parameter-value" "value" 0.000181)#f
(set-parameter-data "starttimestep" "parameter-value" "value" 39520.000000)#f
(set-parameter-data "astart0" "parameter-value" "value" -0.000181)#f
(set-parameter-data "aend0" "parameter-value" "value" -0.000344)#f
(set-parameter-data "astart1" "parameter-value" "value" 0.000181)#f
(set-parameter-data "aend1" "parameter-value" "value" 0.000344)#f
(set-parameter-data "starttimestep" "parameter-value" "value" 39540.000000)#f
(set-parameter-data "astart0" "parameter-value" "value" -0.000344)#f
(set-parameter-data "aend0" "parameter-value" "value" -0.000411)#f
(set-parameter-data "astart1" "parameter-value" "value" 0.000344)#f
(set-parameter-data "aend1" "parameter-value" "value" 0.000411)#f
(set-parameter-data "starttimestep" "parameter-value" "value" 39560.000000)#f
(set-parameter-data "astart0" "parameter-value" "value" -0.000411)#f
(set-parameter-data "aend0" "parameter-value" "value" -0.000376)#f
(set-parameter-data "astart1" "parameter-value" "value" 0.000411)#f
(set-parameter-data "aend1" "parameter-value" "value" 0.000376)#f
(set-parameter-data "starttimestep" "parameter-value" "value" 39580.000000)#f
(set-parameter-data "astart0" "parameter-value" "value" -0.000376)#f
(set-parameter-data "aend0" "parameter-value" "value" -0.000228)#f
(set-parameter-data "astart1" "parameter-value" "value" 0.000376)#f
(set-parameter-data "aend1" "parameter-value" "value" 0.000228)#f
(set-parameter-data "starttimestep" "parameter-value" "value" 39600.000000)#f
(set-parameter-data "astart0" "parameter-value" "value" -0.000228)#f
(set-parameter-data "aend0" "parameter-value" "value" 0.000023)#f
(set-parameter-data "astart1" "parameter-value" "value" 0.000228)#f
(set-parameter-data "aend1" "parameter-value" "value" -0.000023)#f
(set-parameter-data "starttimestep" "parameter-value" "value" 39620.000000)#f
(set-parameter-data "astart0" "parameter-value" "value" 0.000023)#f
(set-parameter-data "aend0" "parameter-value" "value" 0.000336)#f
(set-parameter-data "astart1" "parameter-value" "value" -0.000023)#f
(set-parameter-data "aend1" "parameter-value" "value" -0.000336)#f
(set-parameter-data "starttimestep" "parameter-value" "value" 39640.000000)#f
(set-parameter-data "astart0" "parameter-value" "value" 0.000336)#f
(set-parameter-data "aend0" "parameter-value" "value" 0.000687)#f
(set-parameter-data "astart1" "parameter-value" "value" -0.000336)#f
(set-parameter-data "aend1" "parameter-value" "value" -0.000687)#f
(set-parameter-data "starttimestep" "parameter-value" "value" 39660.000000)#f
(set-parameter-data "astart0" "parameter-value" "value" 0.000687)#f
(set-parameter-data "aend0" "parameter-value" "value" 0.001025)#f
(set-parameter-data "astart1" "parameter-value" "value" -0.000687)#f
(set-parameter-data "aend1" "parameter-value" "value" -0.001025)#f
(set-parameter-data "starttimestep" "parameter-value" "value" 39680.000000)#f
(set-parameter-data "astart0" "parameter-value" "value" 0.001025)#f
(set-parameter-data "aend0" "parameter-value" "value" 0.001316)#f
(set-parameter-data "astart1" "parameter-value" "value" -0.001025)#f
(set-parameter-data "aend1" "parameter-value" "value" -0.001316)#f
(set-parameter-data "starttimestep" "parameter-value" "value" 39700.000000)#f
(set-parameter-data "astart0" "parameter-value" "value" 0.001316)#f
(set-parameter-data "aend0" "parameter-value" "value" 0.001531)#f
(set-parameter-data "astart1" "parameter-value" "value" -0.001316)#f
(set-parameter-data "aend1" "parameter-value" "value" -0.001531)#f
(set-parameter-data "starttimestep" "parameter-value" "value" 39720.000000)#f
(set-parameter-data "astart0" "parameter-value" "value" 0.001531)#f
(set-parameter-data "aend0" "parameter-value" "value" 0.001660)#f
(set-parameter-data "astart1" "parameter-value" "value" -0.001531)#f
(set-parameter-data "aend1" "parameter-value" "value" -0.001660)#f
(set-parameter-data "starttimestep" "parameter-value" "value" 39740.000000)#f
(set-parameter-data "astart0" "parameter-value" "value" 0.001660)#f
(set-parameter-data "aend0" "parameter-value" "value" 0.001683)#f
(set-parameter-data "astart1" "parameter-value" "value" -0.001660)#f
(set-parameter-data "aend1" "parameter-value" "value" -0.001683)#f
(set-parameter-data "starttimestep" "parameter-value" "value" 39760.000000)#f
(set-parameter-data "astart0" "parameter-value" "value" 0.001683)#f
(set-parameter-data "aend0" "parameter-value" "value" 0.001587)#f
(set-parameter-data "astart1" "parameter-value" "value" -0.001683)#f
(set-parameter-data "aend1" "parameter-value" "value" -0.001587)#f
(set-parameter-data "starttimestep" "parameter-value" "value" 39780.000000)#f
(set-parameter-data "astart0" "parameter-value" "value" 0.001587)#f
(set-parameter-data "aend0" "parameter-value" "value" 0.001381)#f
(set-parameter-data "astart1" "parameter-value" "value" -0.001587)#f
(set-parameter-data "aend1" "parameter-value" "value" -0.001381)#f
(set-parameter-data "starttimestep" "parameter-value" "value" 39800.000000)#f
(set-parameter-data "astart0" "parameter-value" "value" 0.001381)#f
(set-parameter-data "aend0" "parameter-value" "value" 0.001081)#f
(set-parameter-data "astart1" "parameter-value" "value" -0.001381)#f
(set-parameter-data "aend1" "parameter-value" "value" -0.001081)#f
(set-parameter-data "starttimestep" "parameter-value" "value" 39820.000000)#f
(set-parameter-data "astart0" "parameter-value" "value" 0.001081)#f
(set-parameter-data "aend0" "parameter-value" "value" 0.000733)#f
(set-parameter-data "astart1" "parameter-value" "value" -0.001081)#f
(set-parameter-data "aend1" "parameter-value" "value" -0.000733)#f
(set-parameter-data "starttimestep" "parameter-value" "value" 39840.000000)#f
(set-parameter-data "astart0" "parameter-value" "value" 0.000733)#f
(set-parameter-data "aend0" "parameter-value" "value" 0.000386)#f
(set-parameter-data "astart1" "parameter-value" "value" -0.000733)#f
(set-parameter-data "aend1" "parameter-value" "value" -0.000386)#f
(set-parameter-data "starttimestep" "parameter-value" "value" 39860.000000)#f
(set-parameter-data "astart0" "parameter-value" "value" 0.000386)#f
(set-parameter-data "aend0" "parameter-value" "value" 0.000079)#f
(set-parameter-data "astart1" "parameter-value" "value" -0.000386)#f
(set-parameter-data "aend1" "parameter-value" "value" -0.000079)#f
(set-parameter-data "starttimestep" "parameter-value" "value" 39880.000000)#f
(set-parameter-data "astart0" "parameter-value" "value" 0.000079)#f
(set-parameter-data "aend0" "parameter-value" "value" -0.000162)#f
(set-parameter-data "astart1" "parameter-value" "value" -0.000079)#f
(set-parameter-data "aend1" "parameter-value" "value" 0.000162)#f
(set-parameter-data "starttimestep" "parameter-value" "value" 39900.000000)#f
(set-parameter-data "astart0" "parameter-value" "value" -0.000162)#f
(set-parameter-data "aend0" "parameter-value" "value" -0.000329)#f
(set-parameter-data "astart1" "parameter-value" "value" 0.000162)#f
(set-parameter-data "aend1" "parameter-value" "value" 0.000329)#f
(set-parameter-data "starttimestep" "parameter-value" "value" 39920.000000)#f
(set-parameter-data "astart0" "parameter-value" "value" -0.000329)#f
(set-parameter-data "aend0" "parameter-value" "value" -0.000402)#f
(set-parameter-data "astart1" "parameter-value" "value" 0.000329)#f
(set-parameter-data "aend1" "parameter-value" "value" 0.000402)#f
(set-parameter-data "starttimestep" "parameter-value" "value" 39940.000000)#f
(set-parameter-data "astart0" "parameter-value" "value" -0.000402)#f
(set-parameter-data "aend0" "parameter-value" "value" -0.000373)#f
(set-parameter-data "astart1" "parameter-value" "value" 0.000402)#f
(set-parameter-data "aend1" "parameter-value" "value" 0.000373)#f
(set-parameter-data "starttimestep" "parameter-value" "value" 39960.000000)#f
(set-parameter-data "astart0" "parameter-value" "value" -0.000373)#f
(set-parameter-data "aend0" "parameter-value" "value" -0.000235)#f
(set-parameter-data "astart1" "parameter-value" "value" 0.000373)#f
(set-parameter-data "aend1" "parameter-value" "value" 0.000235)#f
