/opt/apps/apps/binapps/fluent/19.2/v192/fluent/fluent19.2.0/bin/fluent -r19.2.0 2d -g -t2 -ssh -sge -sgepe smp.pe 2 -i testc.jou -aas -sgelaunch -sgeup
/opt/apps/apps/binapps/fluent/19.2/v192/fluent/fluent19.2.0/cortex/lnamd64/cortex.19.2.0 -f fluent -g -aas -i testc.jou (fluent "2d -pmpi-auto-selected  -host -alnamd64 -r19.2.0 -t2 -mpi=ibmmpi -cnf=/tmp/fluent-sge-cnf-m83358ym-386 -path/opt/apps/apps/binapps/fluent/19.2/v192/fluent -sge -ssh")
/opt/apps/apps/binapps/fluent/19.2/v192/fluent/fluent19.2.0/bin/fluent -r19.2.0 2d -pmpi-auto-selected -host -alnamd64 -t2 -mpi=ibmmpi -cnf=/tmp/fluent-sge-cnf-m83358ym-386 -path/opt/apps/apps/binapps/fluent/19.2/v192/fluent -sge -ssh -cx node547.pri.csf3.alces.network:37027:41635
/opt/apps/apps/binapps/fluent/19.2/v192/fluent/fluent19.2.0/bin/fluent -r19.2.0 2d -pmpi-auto-selected -host -alnamd64 -t2 -mpi=ibmmpi -cnf=/tmp/fluent-sge-cnf-m83358ym-386 -path/opt/apps/apps/binapps/fluent/19.2/v192/fluent -sge -ssh -cx node547.pri.csf3.alces.network:37027:41635 -sgeup
Starting /opt/apps/apps/binapps/fluent/19.2/v192/fluent/fluent19.2.0/lnamd64/2d_host/fluent.19.2.0 sge host -cx node547.pri.csf3.alces.network:37027:41635 "(list (rpsetvar (QUOTE parallel/function) "fluent 2d -flux -node -alnamd64 -r19.2.0 -t2 -pmpi-auto-selected -mpi=ibmmpi -cnf=/tmp/fluent-sge-cnf-m83358ym-937 -sge -ssh") (rpsetvar (QUOTE parallel/rhost) "") (rpsetvar (QUOTE parallel/ruser) "") (rpsetvar (QUOTE parallel/nprocs_string) "2") (rpsetvar (QUOTE parallel/auto-spawn?) #t) (rpsetvar (QUOTE parallel/trace-level) 0) (rpsetvar (QUOTE parallel/remote-shell) 1) (rpsetvar (QUOTE parallel/path) "/opt/apps/apps/binapps/fluent/19.2/v192/fluent") (rpsetvar (QUOTE parallel/hostsfile) "/tmp/fluent-sge-cnf-m83358ym-937") )"

              Welcome to ANSYS Fluent Release 19.2

              Copyright 1987-2018 ANSYS, Inc. All Rights Reserved.
              Unauthorized use, distribution or duplication is prohibited.
              This product is subject to U.S. laws governing export and re-export.
              For full Legal Notice, see documentation.

Build Time: Aug 08 2018 12:59:01 EDT  Build Id: 10236  
 

     --------------------------------------------------------------
     This is an academic version of ANSYS FLUENT. Usage of this product
     license is limited to the terms and conditions specified in your ANSYS
     license form, additional terms section.
     --------------------------------------------------------------
Host spawning Node 0 on machine "node547.pri.csf3.alces.network" (unix).
/opt/apps/apps/binapps/fluent/19.2/v192/fluent/fluent19.2.0/bin/fluent -r19.2.0 2d -flux -node -alnamd64 -t2 -pmpi-auto-selected -mpi=ibmmpi -cnf=/tmp/fluent-sge-cnf-m83358ym-937 -sge -ssh -mport 10.10.150.47:10.10.150.47:36548:0
/opt/apps/apps/binapps/fluent/19.2/v192/fluent/fluent19.2.0/bin/fluent -r19.2.0 2d -flux -node -alnamd64 -t2 -pmpi-auto-selected -mpi=ibmmpi -cnf=/tmp/fluent-sge-cnf-m83358ym-937 -sge -ssh -mport 10.10.150.47:10.10.150.47:36548:0 -sgeup
Starting /opt/apps/apps/binapps/fluent/19.2/v192/fluent/fluent19.2.0/multiport/mpi/lnamd64/ibmmpi/bin/mpirun -e MPI_IBV_NO_FORK_SAFE=1 -e MPI_USE_MALLOPT_MMAP_MAX=0 -f /tmp/fluent-appfile.m83358ym.1567

------------------------------------------------------------------------------------
ID    Hostname              Core  O.S.      PID        Vendor                      
------------------------------------------------------------------------------------
n0-1  node547.pri.csf3.alc  2/16  Linux-64  1834-1835  Intel(R) Xeon(R) E5-2650 v2 
host  node547.pri.csf3.alc        Linux-64  1016       Intel(R) Xeon(R) E5-2650 v2 

MPI Option Selected: ibmmpi
Selected system interconnect: mpi-auto-selected
------------------------------------------------------------------------------------


Initializing SGE
Done.
Cleanup script file is /net/scratch2/m83358ym/Workingfolder/simulation_base/cleanup-fluent-node547.pri.csf3.alces.network-1016.sh

Posting ANSYS Product Improvement Program startup data
Done.

Opening wrapper library "/opt/apps/apps/binapps/fluent/19.2/v192/fluent/../commonfiles/AAS/bin/linx64/libCOWrapper.so"...

Done.
Loading "/opt/apps/apps/binapps/fluent/19.2/v192/fluent/fluent19.2.0/cortex/lib/cowrapper.scm"
Done.
(define (aaslistener-func iter time-step) (display "<aaslistener>
") '() )aaslistener-func
(define (aaslistener-func-freq) 1)aaslistener-func-freq
(register-solution-monitor 'aaslistener-func aaslistener-func #f aaslistener-func-freq)monitor-lambdas
(rpsetvar 'co-simulation/ior_ICoFluentUnit "IOR:010000002000000049444c3a4141535f434f5242412f49436f466c75656e74556e69743a312e3000010000000000000080000000010102001f0000006e6f64653534372e7072692e637366332e616c6365732e6e6574776f726b000059a100001b00000014010f00525354fd6e60623bc104000100000001000000020000000002000000000000000800000001000000004f41540100000018000000010000000100010001000000010001050901010000000000")co-simulation/ior_icofluentunit
(rp-var-define 'co-simulation/ior_ExceptionHolder "IOR:010000003000000049444c3a4141535f434f5242412f466c75656e742f49466c75656e74457863657074696f6e486f6c6465723a312e3000010000000000000080000000010102001f0000006e6f64653534372e7072692e637366332e616c6365732e6e6574776f726b0000f48800001b00000014010f00525354fd6e60623db104000000000001000000010000000002000000000000000800000001000000004f41540100000018000000010000000100010001000000010001050901010000000000" 'string #f)co-simulation/ior_exceptionholder
(rpsetvar 'co-simulation/ior_ExceptionHolder "IOR:010000003000000049444c3a4141535f434f5242412f466c75656e742f49466c75656e74457863657074696f6e486f6c6465723a312e3000010000000000000080000000010102001f0000006e6f64653534372e7072692e637366332e616c6365732e6e6574776f726b0000f48800001b00000014010f00525354fd6e60623db104000000000001000000010000000002000000000000000800000001000000004f41540100000018000000010000000100010001000000010001050901010000000000")co-simulation/ior_exceptionholder

Reading journal file testc.jou...

> file/read-case-data TurbulentFlowControl.casWARNING: Rank:0 Machine node547.pri.csf3.alces.network has 21 % of RAM filled with file buffer caches.
This can cause potential performance issues. Please use -cflush flag to flush the cache. 
(In case of any trouble with that, try the TUI/Scheme command '(flush-cache)'.)


Multicore processors detected. Processor affinity set!

Reading "TurbulentFlowControl.cas"...

Buffering for file scan...



    8160 quadrilateral cells, zone  1, binary.
   16112 2D interior faces, zone  2, binary.
      72 2D wall faces, zone  3, binary.
       4 2D velocity-inlet faces, zone  4, binary.
       4 2D velocity-inlet faces, zone  5, binary.
      34 2D velocity-inlet faces, zone  6, binary.
     134 2D wall faces, zone  7, binary.
     134 2D wall faces, zone  8, binary.
      34 2D pressure-outlet faces, zone  9, binary.
    8368 nodes, binary.
8368 node flags, binary.

Building...
     mesh
	auto partitioning mesh by Metis (fast),
	distributing mesh
		parts..,
		faces..,
		nodes..,
		cells..,
        bandwidth reduction using Reverse Cuthill-McKee: 97/79 = 1.22785
     materials,
     interface,
     domains,
	mixture
     zones,
	outlet
	top
	bottom
	cylinder-2
	default_interior-1
	inlet
	t1
	t2
	cylinder
     parallel,
Done.

Reading "TurbulentFlowControl.dat"...



Parallel variables...
Done.

Expressions feature has been enabled. Now you can use expressions
to set up specific model settings, cell zone and boundary conditions.
You can also create and use named expressions.

> rc "TurbulentFlowControl.cas"WARNING: Rank:0 Machine node547.pri.csf3.alces.network has 21 % of RAM filled with file buffer caches.
This can cause potential performance issues. Please use -cflush flag to flush the cache. 
(In case of any trouble with that, try the TUI/Scheme command '(flush-cache)'.)


Multicore processors detected. Processor affinity set!

Reading "TurbulentFlowControl.cas"...

Buffering for file scan...




       Clearing partially read grid.
    8160 quadrilateral cells, zone  1, binary.
   16112 2D interior faces, zone  2, binary.
      72 2D wall faces, zone  3, binary.
       4 2D velocity-inlet faces, zone  4, binary.
       4 2D velocity-inlet faces, zone  5, binary.
      34 2D velocity-inlet faces, zone  6, binary.
     134 2D wall faces, zone  7, binary.
     134 2D wall faces, zone  8, binary.
      34 2D pressure-outlet faces, zone  9, binary.
    8368 nodes, binary.
8368 node flags, binary.

Building...
     mesh
	auto partitioning mesh by Metis (fast),
	distributing mesh
		parts..,
		faces..,
		nodes..,
		cells..,
        bandwidth reduction using Reverse Cuthill-McKee: 97/79 = 1.22785
     materials,
     interface,
     domains,
	mixture
     zones,
	outlet
	top
	bottom
	cylinder-2
	default_interior-1
	inlet
	t1
	t2
	cylinder
     parallel,
Done.
rd "TurbulentFlowControl.dat"
Reading "TurbulentFlowControl.dat"...



Parallel variables...
Done.
rc "TurbulentFlowControl.cas"rd "TurbulentFlowControl.dat"